<?xml version="1.0" encoding="UTF-8"?>

<!-- generated on 2024-07-02 17:13:20 by Eclipse SUMO netedit Version 1.19.0
-->

<additional xmlns:xsi="http://www.w3.org/2001/XMLSchema-instance" xsi:noNamespaceSchemaLocation="http://sumo.dlr.de/xsd/additional_file.xsd">
    <!-- StoppingPlaces -->
    <busStop id="bs_0" lane="27662625#1_1" startPos="43.53" endPos="53.53"/>
</additional>
