<?xml version="1.0" encoding="UTF-8"?>

<!-- generated on 2024-08-04 20:40:41 by Eclipse SUMO netedit Version 1.19.0
-->

<additional xmlns:xsi="http://www.w3.org/2001/XMLSchema-instance" xsi:noNamespaceSchemaLocation="http://sumo.dlr.de/xsd/additional_file.xsd">
    <!-- StoppingPlaces -->
    <busStop id="bs_0" lane="27662625#1_1" startPos="43.53" endPos="53.53"/>
    <busStop id="bs_1" lane="27831120_1" startPos="8" endPos="11.47"/>
    <busStop id="bs_2" lane="712682734_1" startPos="7.46" endPos="17.46"/>
    <busStop id="bs_3" lane="38062536#2_1" startPos="9.44" endPos="19.44"/>
</additional>
