<?xml version="1.0" encoding="UTF-8"?>

<!-- generated on 2024-06-23 15:45:11.755268 by osmWebWizard.py v1_19_0+0000-baa66a0f364
<configuration>
    <net-file value="C:\Users\HP_Demo\Sumo\2024-06-23-15-44-59\osm.net.xml.gz"/>
    <output-trip-file value="C:\Users\HP_Demo\Sumo\2024-06-23-15-44-59\osm.bus.trips.xml"/>
    <route-file value="C:\Users\HP_Demo\Sumo\2024-06-23-15-44-59\osm.bus.rou.xml"/>
    <prefix value="bus"/>
    <trip-attributes value="departLane=&quot;best&quot;"/>
    <fringe-start-attributes value="departSpeed=&quot;max&quot;"/>
    <vehicle-class value="bus"/>
    <fringe-factor value="30"/>
    <vclass value="bus"/>
    <via-edge-types value="highway.motorway,highway.motorway_link,highway.trunk_link,highway.primary_link,highway.secondary_link,highway.tertiary_link"/>
    <min-distance value="600.0"/>
    <min-distance.fringe value="10.0"/>
    <remove-loops value="True"/>
    <validate value="True"/>
    <insertion-density value="50.0"/>
</configuration>
-->

<!-- generated on 2024-06-23 15:45:10 by Eclipse SUMO duarouter Version 1.19.0
<configuration xmlns:xsi="http://www.w3.org/2001/XMLSchema-instance" xsi:noNamespaceSchemaLocation="http://sumo.dlr.de/xsd/duarouterConfiguration.xsd">

    <input>
        <net-file value="C:\Users\HP_Demo\Sumo\2024-06-23-15-44-59\osm.net.xml.gz"/>
        <route-files value="C:\Users\HP_Demo\Sumo\2024-06-23-15-44-59\osm.bus.trips.xml"/>
    </input>

    <output>
        <output-file value="C:\Users\HP_Demo\Sumo\2024-06-23-15-44-59\osm.bus.trips.xml.tmp"/>
        <alternatives-output value="NUL"/>
        <write-trips value="true"/>
    </output>

    <processing>
        <remove-loops value="true"/>
    </processing>

    <time>
        <begin value="0.0"/>
        <end value="3600.0"/>
    </time>

    <report>
        <no-warnings value="true"/>
        <ignore-errors value="true"/>
        <no-step-log value="true"/>
    </report>

</configuration>
-->

<routes xmlns:xsi="http://www.w3.org/2001/XMLSchema-instance" xsi:noNamespaceSchemaLocation="http://sumo.dlr.de/xsd/routes_file.xsd">
    <vType id="bus_bus" vClass="bus"/>
    <trip id="bus2" type="bus_bus" depart="1.08" departLane="best" from="-645172765#0" to="547665432#1"/>
    <trip id="bus5" type="bus_bus" depart="2.70" departLane="best" from="706054788#0" to="25794650"/>
    <trip id="bus7" type="bus_bus" depart="3.78" departLane="best" from="547667543#0" to="32946689#1"/>
    <trip id="bus8" type="bus_bus" depart="4.32" departLane="best" from="-710575994#0" to="40796868#0"/>
    <trip id="bus9" type="bus_bus" depart="4.86" departLane="best" from="703998740#2" to="-1010341986#0"/>
    <trip id="bus10" type="bus_bus" depart="5.40" departLane="best" from="703998734#2" to="570477020"/>
    <trip id="bus12" type="bus_bus" depart="6.48" departLane="best" departSpeed="max" from="762037983" to="1088980782"/>
    <trip id="bus14" type="bus_bus" depart="7.56" departLane="best" departSpeed="max" from="704887558#0" to="40796871#0"/>
    <trip id="bus15" type="bus_bus" depart="8.10" departLane="best" departSpeed="max" from="30763991" to="824674208"/>
    <trip id="bus16" type="bus_bus" depart="8.64" departLane="best" from="205382763#6" to="374114345#1"/>
    <trip id="bus17" type="bus_bus" depart="9.18" departLane="best" from="704471784" to="4174072"/>
    <trip id="bus18" type="bus_bus" depart="9.72" departLane="best" departSpeed="max" from="705241291#0" to="374119556"/>
    <trip id="bus19" type="bus_bus" depart="10.26" departLane="best" departSpeed="max" from="571044351#0" to="-109033611#4"/>
    <trip id="bus21" type="bus_bus" depart="11.34" departLane="best" departSpeed="max" from="-22648376#4" to="-562968525#0"/>
    <trip id="bus22" type="bus_bus" depart="11.88" departLane="best" departSpeed="max" from="-22729190#1" to="-705233292"/>
    <trip id="bus23" type="bus_bus" depart="12.42" departLane="best" departSpeed="max" from="547667540#0" to="18018451#1"/>
    <trip id="bus25" type="bus_bus" depart="13.49" departLane="best" from="547667542#0" to="4089442#1"/>
    <trip id="bus26" type="bus_bus" depart="14.03" departLane="best" departSpeed="max" from="-4940456#4" to="654885053#1"/>
    <trip id="bus27" type="bus_bus" depart="14.57" departLane="best" from="86714582#3" to="4940456#4"/>
    <trip id="bus28" type="bus_bus" depart="15.11" departLane="best" departSpeed="max" from="34883547" to="547696282#0"/>
    <trip id="bus29" type="bus_bus" depart="15.65" departLane="best" from="-738574688#1" to="-109033611#0"/>
    <trip id="bus30" type="bus_bus" depart="16.19" departLane="best" from="705369237" to="-840838450#2"/>
    <trip id="bus32" type="bus_bus" depart="17.27" departLane="best" departSpeed="max" from="1010341986#0" to="-562968525#5"/>
    <trip id="bus33" type="bus_bus" depart="17.81" departLane="best" departSpeed="max" from="34883547" to="-628567747"/>
    <trip id="bus35" type="bus_bus" depart="18.89" departLane="best" from="-22648395#8" to="-547667540#0"/>
    <trip id="bus36" type="bus_bus" depart="19.43" departLane="best" from="92357007" to="25794650"/>
    <trip id="bus37" type="bus_bus" depart="19.97" departLane="best" from="-22648395#6" to="-1179636335"/>
    <trip id="bus38" type="bus_bus" depart="20.51" departLane="best" departSpeed="max" from="-22729190#1" to="48345239"/>
    <trip id="bus39" type="bus_bus" depart="21.05" departLane="best" departSpeed="max" from="703401991" to="-22648528#0"/>
    <trip id="bus40" type="bus_bus" depart="21.59" departLane="best" departSpeed="max" from="-20961487" to="188163087"/>
    <trip id="bus41" type="bus_bus" depart="22.13" departLane="best" from="92357001" to="31827179#1"/>
    <trip id="bus44" type="bus_bus" depart="23.75" departLane="best" departSpeed="max" from="562968525#0" to="32946572"/>
    <trip id="bus45" type="bus_bus" depart="24.29" departLane="best" departSpeed="max" from="1010341986#0" to="4940456#4"/>
    <trip id="bus48" type="bus_bus" depart="25.91" departLane="best" from="712417479" to="705369236#1"/>
    <trip id="bus49" type="bus_bus" depart="26.45" departLane="best" departSpeed="max" from="109033611#0" to="4940456#4"/>
    <trip id="bus51" type="bus_bus" depart="27.53" departLane="best" from="700684166" to="32946572"/>
    <trip id="bus52" type="bus_bus" depart="28.07" departLane="best" from="701516271#0" to="32090457"/>
    <trip id="bus53" type="bus_bus" depart="28.61" departLane="best" departSpeed="max" from="-1101598986" to="712675950"/>
    <trip id="bus54" type="bus_bus" depart="29.15" departLane="best" from="109033611#5" to="-1179636335"/>
    <trip id="bus55" type="bus_bus" depart="29.69" departLane="best" from="705369246" to="761304863#1"/>
    <trip id="bus56" type="bus_bus" depart="30.23" departLane="best" departSpeed="max" from="-22648376#4" to="25784325#1"/>
    <trip id="bus57" type="bus_bus" depart="30.77" departLane="best" departSpeed="max" from="-20961487" to="700711762"/>
    <trip id="bus58" type="bus_bus" depart="31.31" departLane="best" from="700695451#2" to="-22729184#0"/>
    <trip id="bus60" type="bus_bus" depart="32.39" departLane="best" departSpeed="max" from="1010341986#0" to="705369236#1"/>
    <trip id="bus61" type="bus_bus" depart="32.93" departLane="best" departSpeed="max" from="22729184#0" to="1076670496#1"/>
    <trip id="bus62" type="bus_bus" depart="33.47" departLane="best" departSpeed="max" from="30763991" to="654885090"/>
    <trip id="bus63" type="bus_bus" depart="34.01" departLane="best" from="92356998" to="52871176#1"/>
    <trip id="bus66" type="bus_bus" depart="35.63" departLane="best" from="17152532#0" to="40260109#0"/>
    <trip id="bus67" type="bus_bus" depart="36.17" departLane="best" from="738552201" to="-547667540#0"/>
    <trip id="bus68" type="bus_bus" depart="36.71" departLane="best" from="-22604033#1" to="4940451#2"/>
    <trip id="bus69" type="bus_bus" depart="37.25" departLane="best" departSpeed="max" from="705241291#0" to="-1268126328"/>
    <trip id="bus70" type="bus_bus" depart="37.78" departLane="best" departSpeed="max" from="-824674208" to="547665432#1"/>
    <trip id="bus71" type="bus_bus" depart="38.32" departLane="best" from="-700547993#3" to="-22729184#0"/>
    <trip id="bus73" type="bus_bus" depart="39.40" departLane="best" from="703998736#1" to="27661428#1"/>
    <trip id="bus75" type="bus_bus" depart="40.48" departLane="best" departSpeed="max" from="628567747" to="547665432#1"/>
    <trip id="bus77" type="bus_bus" depart="41.56" departLane="best" from="22697402#4" to="1088980782"/>
    <trip id="bus78" type="bus_bus" depart="42.10" departLane="best" departSpeed="max" from="22729184#0" to="-705233292"/>
    <trip id="bus79" type="bus_bus" depart="42.64" departLane="best" from="-86720809#0" to="712675950"/>
    <trip id="bus81" type="bus_bus" depart="43.72" departLane="best" from="31827179#0" to="-1179636335"/>
    <trip id="bus82" type="bus_bus" depart="44.26" departLane="best" from="99485069#3" to="705241296#4"/>
    <trip id="bus83" type="bus_bus" depart="44.80" departLane="best" from="762059653#0" to="712675950"/>
    <trip id="bus86" type="bus_bus" depart="46.42" departLane="best" from="22697402#1" to="-1179636335"/>
    <trip id="bus87" type="bus_bus" depart="46.96" departLane="best" from="-21230406#0" to="840838450#1"/>
    <trip id="bus89" type="bus_bus" depart="48.04" departLane="best" departSpeed="max" from="762037983" to="92356999"/>
    <trip id="bus92" type="bus_bus" depart="49.66" departLane="best" from="762059653#0" to="374119556"/>
    <trip id="bus94" type="bus_bus" depart="50.74" departLane="best" departSpeed="max" from="-20961487" to="38318883#0"/>
    <trip id="bus99" type="bus_bus" depart="53.44" departLane="best" departSpeed="max" from="-824674208" to="-22729176#1"/>
    <trip id="bus101" type="bus_bus" depart="54.52" departLane="best" departSpeed="max" from="22729184#0" to="374119558"/>
    <trip id="bus102" type="bus_bus" depart="55.06" departLane="best" departSpeed="max" from="-824674208" to="22598124#1"/>
    <trip id="bus103" type="bus_bus" depart="55.60" departLane="best" departSpeed="max" from="552769059" to="-706054788#0"/>
    <trip id="bus105" type="bus_bus" depart="56.68" departLane="best" from="99485069#1" to="92357001"/>
    <trip id="bus106" type="bus_bus" depart="57.22" departLane="best" from="-22648376#3" to="4940456#3"/>
    <trip id="bus110" type="bus_bus" depart="59.38" departLane="best" departSpeed="max" from="552769056" to="-1010341986#0"/>
    <trip id="bus111" type="bus_bus" depart="59.92" departLane="best" departSpeed="max" from="704356343#0" to="-706054787"/>
    <trip id="bus112" type="bus_bus" depart="60.46" departLane="best" departSpeed="max" from="552769056" to="712689933#0"/>
    <trip id="bus113" type="bus_bus" depart="61.00" departLane="best" from="-25784325#0" to="-22648395#1"/>
    <trip id="bus114" type="bus_bus" depart="61.54" departLane="best" departSpeed="max" from="-22729190#1" to="374114346#3"/>
    <trip id="bus115" type="bus_bus" depart="62.08" departLane="best" from="1010341988#0" to="40796871#3"/>
    <trip id="bus120" type="bus_bus" depart="64.77" departLane="best" departSpeed="max" from="22729184#0" to="-705233292"/>
    <trip id="bus121" type="bus_bus" depart="65.31" departLane="best" departSpeed="max" from="-1088980782" to="701644612"/>
    <trip id="bus122" type="bus_bus" depart="65.85" departLane="best" departSpeed="max" from="547667540#0" to="-628567747"/>
    <trip id="bus123" type="bus_bus" depart="66.39" departLane="best" from="658325611#0" to="374114345#0"/>
    <trip id="bus124" type="bus_bus" depart="66.93" departLane="best" departSpeed="max" from="-22648376#4" to="-706191001#1"/>
    <trip id="bus125" type="bus_bus" depart="67.47" departLane="best" from="712411946" to="32946692#2"/>
    <trip id="bus126" type="bus_bus" depart="68.01" departLane="best" departSpeed="max" from="704887558#0" to="374119556"/>
    <trip id="bus127" type="bus_bus" depart="68.55" departLane="best" departSpeed="max" from="-25784325#2" to="-22729184#0"/>
    <trip id="bus128" type="bus_bus" depart="69.09" departLane="best" from="1123113143#0" to="711230098"/>
    <trip id="bus129" type="bus_bus" depart="69.63" departLane="best" from="706191006#1" to="-4940451#1"/>
    <trip id="bus131" type="bus_bus" depart="70.71" departLane="best" from="22729176#2" to="4174072"/>
    <trip id="bus132" type="bus_bus" depart="71.25" departLane="best" from="-4940449#0" to="712675950"/>
    <trip id="bus133" type="bus_bus" depart="71.79" departLane="best" departSpeed="max" from="705241291#0" to="824674208"/>
    <trip id="bus134" type="bus_bus" depart="72.33" departLane="best" from="703998741#1" to="705369243#1"/>
    <trip id="bus136" type="bus_bus" depart="73.41" departLane="best" departSpeed="max" from="144850884#0" to="712675950"/>
    <trip id="bus137" type="bus_bus" depart="73.95" departLane="best" from="-704567987" to="705369236#1"/>
    <trip id="bus138" type="bus_bus" depart="74.49" departLane="best" from="703998741#1" to="-700547993#1"/>
    <trip id="bus140" type="bus_bus" depart="75.57" departLane="best" from="-712411963#1" to="704887559#1"/>
    <trip id="bus142" type="bus_bus" depart="76.65" departLane="best" departSpeed="max" from="703401991" to="-547667540#0"/>
    <trip id="bus143" type="bus_bus" depart="77.19" departLane="best" departSpeed="max" from="-1101598986" to="320330029#1"/>
    <trip id="bus144" type="bus_bus" depart="77.73" departLane="best" departSpeed="max" from="144850884#0" to="705369236#1"/>
    <trip id="bus145" type="bus_bus" depart="78.27" departLane="best" from="762059650#0" to="-705233292"/>
    <trip id="bus146" type="bus_bus" depart="78.81" departLane="best" departSpeed="max" from="547667540#0" to="-22604033#1"/>
    <trip id="bus147" type="bus_bus" depart="79.35" departLane="best" departSpeed="max" from="762325827" to="32946572"/>
    <trip id="bus148" type="bus_bus" depart="79.89" departLane="best" departSpeed="max" from="738588370" to="-22648395#1"/>
    <trip id="bus150" type="bus_bus" depart="80.97" departLane="best" departSpeed="max" from="762037983" to="645172765#2"/>
    <trip id="bus151" type="bus_bus" depart="81.51" departLane="best" departSpeed="max" from="628567747" to="-840838450#0"/>
    <trip id="bus152" type="bus_bus" depart="82.05" departLane="best" from="4418472" to="25794650"/>
    <trip id="bus153" type="bus_bus" depart="82.59" departLane="best" from="22598088#3" to="374119556"/>
    <trip id="bus154" type="bus_bus" depart="83.13" departLane="best" from="99485069#1" to="573621956#6"/>
    <trip id="bus158" type="bus_bus" depart="85.29" departLane="best" departSpeed="max" from="552769056" to="1088980782"/>
    <trip id="bus159" type="bus_bus" depart="85.83" departLane="best" departSpeed="max" from="628567747" to="-706054788#1"/>
    <trip id="bus160" type="bus_bus" depart="86.37" departLane="best" from="1123113144" to="22648376#4"/>
    <trip id="bus162" type="bus_bus" depart="87.44" departLane="best" departSpeed="max" from="738588370" to="547665432#1"/>
    <trip id="bus163" type="bus_bus" depart="87.98" departLane="best" from="711293094" to="4174072"/>
    <trip id="bus164" type="bus_bus" depart="88.52" departLane="best" departSpeed="max" from="109033611#0" to="374108128#0"/>
    <trip id="bus166" type="bus_bus" depart="89.60" departLane="best" from="22729199" to="374119556"/>
    <trip id="bus171" type="bus_bus" depart="92.30" departLane="best" departSpeed="max" from="-22648376#4" to="25945011#1"/>
    <trip id="bus172" type="bus_bus" depart="92.84" departLane="best" departSpeed="max" from="547667540#0" to="1088980782"/>
    <trip id="bus173" type="bus_bus" depart="93.38" departLane="best" departSpeed="max" from="704356343#0" to="700547993#3"/>
    <trip id="bus174" type="bus_bus" depart="93.92" departLane="best" departSpeed="max" from="-627666449" to="-1051412356#0"/>
    <trip id="bus175" type="bus_bus" depart="94.46" departLane="best" from="704909391" to="-1268126328"/>
    <trip id="bus176" type="bus_bus" depart="95.00" departLane="best" departSpeed="max" from="22729184#0" to="4940451#0"/>
    <trip id="bus179" type="bus_bus" depart="96.62" departLane="best" departSpeed="max" from="552769056" to="-1010341986#0"/>
    <trip id="bus180" type="bus_bus" depart="97.16" departLane="best" departSpeed="max" from="671962727" to="701644607#1"/>
    <trip id="bus181" type="bus_bus" depart="97.70" departLane="best" departSpeed="max" from="-22729190#1" to="22697402#4"/>
    <trip id="bus183" type="bus_bus" depart="98.78" departLane="best" departSpeed="max" from="28573721#0" to="-1179636335"/>
    <trip id="bus186" type="bus_bus" depart="100.40" departLane="best" departSpeed="max" from="552769059" to="86713541#1"/>
    <trip id="bus188" type="bus_bus" depart="101.48" departLane="best" departSpeed="max" from="705369253#0" to="4174072"/>
    <trip id="bus189" type="bus_bus" depart="102.02" departLane="best" from="573636377#0" to="25794650"/>
    <trip id="bus190" type="bus_bus" depart="102.56" departLane="best" from="704556778#0" to="36987412"/>
    <trip id="bus192" type="bus_bus" depart="103.64" departLane="best" from="-840838450#1" to="4940456#4"/>
    <trip id="bus193" type="bus_bus" depart="104.18" departLane="best" from="700695451#2" to="28573506#0"/>
    <trip id="bus195" type="bus_bus" depart="105.26" departLane="best" from="1010341986#3" to="-86720809#4"/>
    <trip id="bus196" type="bus_bus" depart="105.80" departLane="best" departSpeed="max" from="30763991" to="22729184#1"/>
    <trip id="bus197" type="bus_bus" depart="106.34" departLane="best" from="547667540#2" to="570477020"/>
    <trip id="bus198" type="bus_bus" depart="106.88" departLane="best" departSpeed="max" from="571044351#0" to="-1268126328"/>
    <trip id="bus199" type="bus_bus" depart="107.42" departLane="best" from="22729176#5" to="32946572"/>
    <trip id="bus201" type="bus_bus" depart="108.50" departLane="best" departSpeed="max" from="22729184#0" to="711293098"/>
    <trip id="bus202" type="bus_bus" depart="109.04" departLane="best" departSpeed="max" from="705241291#0" to="701378346#1"/>
    <trip id="bus203" type="bus_bus" depart="109.58" departLane="best" from="220840489#0" to="-1010341986#0"/>
    <trip id="bus205" type="bus_bus" depart="110.66" departLane="best" from="705233296" to="762059650#0"/>
    <trip id="bus207" type="bus_bus" depart="111.74" departLane="best" from="31091044#2" to="40796868#1"/>
    <trip id="bus208" type="bus_bus" depart="112.27" departLane="best" from="-710575994#0" to="-547667540#0"/>
    <trip id="bus210" type="bus_bus" depart="113.35" departLane="best" departSpeed="max" from="144850884#0" to="547665432#1"/>
    <trip id="bus213" type="bus_bus" depart="114.97" departLane="best" from="22604035#6" to="374119549#0"/>
    <trip id="bus214" type="bus_bus" depart="115.51" departLane="best" departSpeed="max" from="-1101598986" to="4940456#4"/>
    <trip id="bus216" type="bus_bus" depart="116.59" departLane="best" from="-18018451#2" to="188163087"/>
    <trip id="bus217" type="bus_bus" depart="117.13" departLane="best" from="-645172765#2" to="1076360324#1"/>
    <trip id="bus218" type="bus_bus" depart="117.67" departLane="best" from="700547993#2" to="188163087"/>
    <trip id="bus219" type="bus_bus" depart="118.21" departLane="best" departSpeed="max" from="671962727" to="705241296#4"/>
    <trip id="bus221" type="bus_bus" depart="119.29" departLane="best" departSpeed="max" from="-1101598986" to="32946572"/>
    <trip id="bus222" type="bus_bus" depart="119.83" departLane="best" from="99485069#4" to="1203401388"/>
    <trip id="bus227" type="bus_bus" depart="122.53" departLane="best" departSpeed="max" from="34883547" to="-547667540#0"/>
    <trip id="bus229" type="bus_bus" depart="123.61" departLane="best" departSpeed="max" from="-4940456#4" to="4086409#2"/>
    <trip id="bus230" type="bus_bus" depart="124.15" departLane="best" departSpeed="max" from="671962727" to="-22648376#3"/>
    <trip id="bus233" type="bus_bus" depart="125.77" departLane="best" departSpeed="max" from="762037983" to="22598124#3"/>
    <trip id="bus234" type="bus_bus" depart="126.31" departLane="best" from="571060430#1" to="14712201"/>
    <trip id="bus235" type="bus_bus" depart="126.85" departLane="best" departSpeed="max" from="562968525#0" to="462035254"/>
    <trip id="bus236" type="bus_bus" depart="127.39" departLane="best" departSpeed="max" from="-22729190#1" to="702461322#1"/>
    <trip id="bus237" type="bus_bus" depart="127.93" departLane="best" from="705106530#0" to="40796868#1"/>
    <trip id="bus239" type="bus_bus" depart="129.01" departLane="best" from="701657354" to="1123113144"/>
    <trip id="bus240" type="bus_bus" depart="129.55" departLane="best" from="22729197#1" to="188163087"/>
    <trip id="bus241" type="bus_bus" depart="130.09" departLane="best" departSpeed="max" from="27663230" to="1088980782"/>
    <trip id="bus242" type="bus_bus" depart="130.63" departLane="best" departSpeed="max" from="547667540#0" to="705241295"/>
    <trip id="bus243" type="bus_bus" depart="131.17" departLane="best" departSpeed="max" from="571044351#0" to="22729190#1"/>
    <trip id="bus245" type="bus_bus" depart="132.25" departLane="best" departSpeed="max" from="30763991" to="24530871"/>
    <trip id="bus249" type="bus_bus" depart="134.41" departLane="best" departSpeed="max" from="705369253#0" to="-562968525#0"/>
    <trip id="bus250" type="bus_bus" depart="134.95" departLane="best" from="-25784325#1" to="4174072"/>
    <trip id="bus251" type="bus_bus" depart="135.49" departLane="best" from="671307953#0" to="703998740#1"/>
    <trip id="bus252" type="bus_bus" depart="136.03" departLane="best" from="179384093" to="705369250"/>
    <trip id="bus253" type="bus_bus" depart="136.57" departLane="best" departSpeed="max" from="571044351#0" to="-705233292"/>
    <trip id="bus254" type="bus_bus" depart="137.10" departLane="best" departSpeed="max" from="-1088980782" to="761304863#3"/>
    <trip id="bus258" type="bus_bus" depart="139.26" departLane="best" departSpeed="max" from="562968525#0" to="712668427#1"/>
    <trip id="bus259" type="bus_bus" depart="139.80" departLane="best" from="39077073#4" to="24530871"/>
    <trip id="bus260" type="bus_bus" depart="140.34" departLane="best" departSpeed="max" from="30763991" to="22697402#5"/>
    <trip id="bus261" type="bus_bus" depart="140.88" departLane="best" departSpeed="max" from="671962727" to="1088980782"/>
    <trip id="bus262" type="bus_bus" depart="141.42" departLane="best" departSpeed="max" from="571044351#0" to="-705233292"/>
    <trip id="bus263" type="bus_bus" depart="141.96" departLane="best" from="-86720809#11" to="-22729176#2"/>
    <trip id="bus264" type="bus_bus" depart="142.50" departLane="best" departSpeed="max" from="30763991" to="700720877"/>
    <trip id="bus265" type="bus_bus" depart="143.04" departLane="best" departSpeed="max" from="-570477020" to="-547667540#0"/>
    <trip id="bus266" type="bus_bus" depart="143.58" departLane="best" departSpeed="max" from="762325827" to="31091046#1"/>
    <trip id="bus269" type="bus_bus" depart="145.20" departLane="best" departSpeed="max" from="30763991" to="-705233292"/>
    <trip id="bus270" type="bus_bus" depart="145.74" departLane="best" departSpeed="max" from="762325827" to="374114346#3"/>
    <trip id="bus271" type="bus_bus" depart="146.28" departLane="best" from="562968525#4" to="-22729184#0"/>
    <trip id="bus272" type="bus_bus" depart="146.82" departLane="best" from="705249101#0" to="374119556"/>
    <trip id="bus274" type="bus_bus" depart="147.90" departLane="best" departSpeed="max" from="738588370" to="24530871"/>
    <trip id="bus275" type="bus_bus" depart="148.44" departLane="best" departSpeed="max" from="704356343#0" to="-22604033#3"/>
    <trip id="bus276" type="bus_bus" depart="148.98" departLane="best" departSpeed="max" from="-22648376#4" to="4940449#1"/>
    <trip id="bus278" type="bus_bus" depart="150.06" departLane="best" departSpeed="max" from="34883547" to="-712411963#1"/>
    <trip id="bus279" type="bus_bus" depart="150.60" departLane="best" from="-86720809#8" to="22648395#8"/>
    <trip id="bus280" type="bus_bus" depart="151.14" departLane="best" from="700695449#1" to="4083183#2"/>
    <trip id="bus281" type="bus_bus" depart="151.68" departLane="best" departSpeed="max" from="703401991" to="-547667540#0"/>
    <trip id="bus282" type="bus_bus" depart="152.22" departLane="best" departSpeed="max" from="28573721#0" to="-22729197#1"/>
    <trip id="bus284" type="bus_bus" depart="153.30" departLane="best" from="-86720809#0" to="-712668426"/>
    <trip id="bus286" type="bus_bus" depart="154.38" departLane="best" from="654885084" to="761304863#2"/>
    <trip id="bus289" type="bus_bus" depart="156.00" departLane="best" from="-4940466" to="-1268126328"/>
    <trip id="bus290" type="bus_bus" depart="156.54" departLane="best" departSpeed="max" from="-1088980782" to="-22729197#1"/>
    <trip id="bus292" type="bus_bus" depart="157.62" departLane="best" from="547667540#2" to="573621956#1"/>
    <trip id="bus293" type="bus_bus" depart="158.16" departLane="best" departSpeed="max" from="571044351#0" to="-706054787"/>
    <trip id="bus294" type="bus_bus" depart="158.70" departLane="best" departSpeed="max" from="562968525#0" to="712675950"/>
    <trip id="bus295" type="bus_bus" depart="159.24" departLane="best" departSpeed="max" from="703401991" to="4418466#1"/>
    <trip id="bus296" type="bus_bus" depart="159.78" departLane="best" departSpeed="max" from="552769056" to="712675950"/>
    <trip id="bus297" type="bus_bus" depart="160.32" departLane="best" from="22729184#1" to="32946572"/>
    <trip id="bus298" type="bus_bus" depart="160.86" departLane="best" from="547667540#2" to="712411963#1"/>
    <trip id="bus299" type="bus_bus" depart="161.40" departLane="best" from="704356345#0" to="-1268126328"/>
    <trip id="bus300" type="bus_bus" depart="161.93" departLane="best" departSpeed="max" from="-4940456#4" to="-712682732"/>
    <trip id="bus301" type="bus_bus" depart="162.47" departLane="best" departSpeed="max" from="671962727" to="374119555"/>
    <trip id="bus302" type="bus_bus" depart="163.01" departLane="best" from="749318776#0" to="-22729184#0"/>
    <trip id="bus303" type="bus_bus" depart="163.55" departLane="best" departSpeed="max" from="562968525#0" to="570477020"/>
    <trip id="bus304" type="bus_bus" depart="164.09" departLane="best" departSpeed="max" from="738588370" to="25794650"/>
    <trip id="bus306" type="bus_bus" depart="165.17" departLane="best" departSpeed="max" from="-119300654" to="22729180#0"/>
    <trip id="bus307" type="bus_bus" depart="165.71" departLane="best" departSpeed="max" from="144850884#0" to="-628567747"/>
    <trip id="bus308" type="bus_bus" depart="166.25" departLane="best" departSpeed="max" from="704887558#0" to="374119556"/>
    <trip id="bus309" type="bus_bus" depart="166.79" departLane="best" departSpeed="max" from="762037983" to="-99485069#4"/>
    <trip id="bus310" type="bus_bus" depart="167.33" departLane="best" departSpeed="max" from="552769059" to="-703430059"/>
    <trip id="bus311" type="bus_bus" depart="167.87" departLane="best" departSpeed="max" from="-119300654" to="700702821"/>
    <trip id="bus317" type="bus_bus" depart="171.11" departLane="best" departSpeed="max" from="144850884#0" to="570477020"/>
    <trip id="bus318" type="bus_bus" depart="171.65" departLane="best" departSpeed="max" from="704356343#0" to="374114342#1"/>
    <trip id="bus320" type="bus_bus" depart="172.73" departLane="best" departSpeed="max" from="144850884#0" to="-808153986"/>
    <trip id="bus321" type="bus_bus" depart="173.27" departLane="best" departSpeed="max" from="-570477020" to="17152532#0"/>
    <trip id="bus322" type="bus_bus" depart="173.81" departLane="best" departSpeed="max" from="671962727" to="4418466#1"/>
    <trip id="bus324" type="bus_bus" depart="174.89" departLane="best" from="31661773#1" to="712675950"/>
    <trip id="bus327" type="bus_bus" depart="176.51" departLane="best" from="4938367" to="-562968525#0"/>
    <trip id="bus329" type="bus_bus" depart="177.59" departLane="best" from="-86720809#12" to="712412891#2"/>
    <trip id="bus331" type="bus_bus" depart="178.67" departLane="best" from="704565015#1" to="25784325#2"/>
    <trip id="bus333" type="bus_bus" depart="179.75" departLane="best" departSpeed="max" from="762325827" to="-562968525#0"/>
    <trip id="bus334" type="bus_bus" depart="180.29" departLane="best" from="-320330029#0" to="188163087"/>
    <trip id="bus335" type="bus_bus" depart="180.83" departLane="best" from="-712682732" to="25794650"/>
    <trip id="bus337" type="bus_bus" depart="181.91" departLane="best" departSpeed="max" from="22729184#0" to="712675950"/>
    <trip id="bus338" type="bus_bus" depart="182.45" departLane="best" departSpeed="max" from="27663230" to="704887559#1"/>
    <trip id="bus342" type="bus_bus" depart="184.61" departLane="best" departSpeed="max" from="30763991" to="-109033611#4"/>
    <trip id="bus343" type="bus_bus" depart="185.15" departLane="best" from="-320330029#1" to="32946572"/>
    <trip id="bus345" type="bus_bus" depart="186.23" departLane="best" from="374114342#0" to="-562968525#0"/>
    <trip id="bus346" type="bus_bus" depart="186.76" departLane="best" from="701096365#0" to="-109033611#0"/>
    <trip id="bus347" type="bus_bus" depart="187.30" departLane="best" departSpeed="max" from="671962727" to="-571060430#1"/>
    <trip id="bus348" type="bus_bus" depart="187.84" departLane="best" from="704341116#0" to="203955896#1"/>
    <trip id="bus349" type="bus_bus" depart="188.38" departLane="best" departSpeed="max" from="552769056" to="704887559#1"/>
    <trip id="bus350" type="bus_bus" depart="188.92" departLane="best" departSpeed="max" from="762325827" to="25784325#2"/>
    <trip id="bus351" type="bus_bus" depart="189.46" departLane="best" departSpeed="max" from="-119300654" to="25794650"/>
    <trip id="bus355" type="bus_bus" depart="191.62" departLane="best" departSpeed="max" from="628567747" to="22648376#4"/>