<?xml version="1.0" encoding="UTF-8"?>

<!-- generated on 2024-06-23 15:45:43.133735 by osmWebWizard.py v1_19_0+0000-baa66a0f364
<configuration>
    <net-file value="C:\Users\HP_Demo\Sumo\2024-06-23-15-44-59\osm.net.xml.gz"/>
    <output-trip-file value="C:\Users\HP_Demo\Sumo\2024-06-23-15-44-59\osm.passenger.trips.xml"/>
    <route-file value="C:\Users\HP_Demo\Sumo\2024-06-23-15-44-59\osm.passenger.rou.xml"/>
    <prefix value="veh"/>
    <trip-attributes value="departLane=&quot;best&quot;"/>
    <fringe-start-attributes value="departSpeed=&quot;max&quot;"/>
    <vehicle-class value="passenger"/>
    <lanes value="True"/>
    <fringe-factor value="50"/>
    <allow-fringe.min-length value="1000.0"/>
    <via-edge-types value="highway.motorway,highway.motorway_link,highway.trunk_link,highway.primary_link,highway.secondary_link,highway.tertiary_link"/>
    <min-distance value="300.0"/>
    <min-distance.fringe value="10.0"/>
    <remove-loops value="True"/>
    <validate value="True"/>
    <insertion-density value="250.0"/>
</configuration>
-->

<!-- generated on 2024-06-23 15:45:36 by Eclipse SUMO duarouter Version 1.19.0
<configuration xmlns:xsi="http://www.w3.org/2001/XMLSchema-instance" xsi:noNamespaceSchemaLocation="http://sumo.dlr.de/xsd/duarouterConfiguration.xsd">

    <input>
        <net-file value="C:\Users\HP_Demo\Sumo\2024-06-23-15-44-59\osm.net.xml.gz"/>
        <route-files value="C:\Users\HP_Demo\Sumo\2024-06-23-15-44-59\osm.passenger.trips.xml"/>
    </input>

    <output>
        <output-file value="C:\Users\HP_Demo\Sumo\2024-06-23-15-44-59\osm.passenger.trips.xml.tmp"/>
        <alternatives-output value="NUL"/>
        <write-trips value="true"/>
    </output>

    <processing>
        <remove-loops value="true"/>
    </processing>

    <time>
        <begin value="0.0"/>
        <end value="3600.0"/>
    </time>

    <report>
        <no-warnings value="true"/>
        <ignore-errors value="true"/>
        <no-step-log value="true"/>
    </report>

</configuration>
-->

<routes xmlns:xsi="http://www.w3.org/2001/XMLSchema-instance" xsi:noNamespaceSchemaLocation="http://sumo.dlr.de/xsd/routes_file.xsd">
    <vType id="veh_passenger" vClass="passenger" minGap="1.5"/>

    <trip id="veh0" type="veh_passenger" depart="0.00" departLane="best" from="645172765#0" to="-109033611#0"/>
    <trip id="veh2" type="veh_passenger" depart="0.21" departLane="best" from="703998736#1" to="701516271#0"/>
    <trip id="veh4" type="veh_passenger" depart="0.43" departLane="best" from="28573721#1" to="-1179636335"/>
    <trip id="veh6" type="veh_passenger" depart="0.64" departLane="best" departSpeed="max" from="-1101598986" to="-705233292"/>
    <trip id="veh7" type="veh_passenger" depart="0.75" departLane="best" from="1076616353" to="547665432#1"/>
    <trip id="veh8" type="veh_passenger" depart="0.85" departLane="best" departSpeed="max" from="704887558#0" to="-1010341986#0"/>
    <trip id="veh10" type="veh_passenger" depart="1.07" departLane="best" departSpeed="max" from="762037983" to="22729197#1"/>
    <trip id="veh12" type="veh_passenger" depart="1.28" departLane="best" from="705363306" to="570477020"/>
    <trip id="veh13" type="veh_passenger" depart="1.39" departLane="best" departSpeed="max" from="547667540#0" to="824674208"/>
    <trip id="veh16" type="veh_passenger" depart="1.71" departLane="best" departSpeed="max" from="705369253#0" to="547665432#1"/>
    <trip id="veh17" type="veh_passenger" depart="1.82" departLane="best" from="701644611" to="-18018451#0"/>
    <trip id="veh18" type="veh_passenger" depart="1.92" departLane="best" departSpeed="max" from="109033611#0" to="188163087"/>
    <trip id="veh19" type="veh_passenger" depart="2.03" departLane="best" departSpeed="max" from="-22648376#4" to="1088980782"/>
    <trip id="veh21" type="veh_passenger" depart="2.24" departLane="best" departSpeed="max" from="628567747" to="24530871"/>
    <trip id="veh24" type="veh_passenger" depart="2.56" departLane="best" departSpeed="max" from="671962727" to="573621955#0"/>
    <trip id="veh25" type="veh_passenger" depart="2.67" departLane="best" from="-712411965#0" to="704887559#1"/>
    <trip id="veh26" type="veh_passenger" depart="2.78" departLane="best" from="-700547993#0" to="25784325#2"/>
    <trip id="veh28" type="veh_passenger" depart="2.99" departLane="best" from="547696282#1" to="-702465338#1"/>
    <trip id="veh29" type="veh_passenger" depart="3.10" departLane="best" from="705249101#0" to="705241296#4"/>
    <trip id="veh30" type="veh_passenger" depart="3.21" departLane="best" departSpeed="max" from="109033611#0" to="-1179636335"/>
    <trip id="veh31" type="veh_passenger" depart="3.31" departLane="best" departSpeed="max" from="22729184#0" to="184842504"/>
    <trip id="veh33" type="veh_passenger" depart="3.53" departLane="best" departSpeed="max" from="705369253#0" to="22648376#4"/>
    <trip id="veh34" type="veh_passenger" depart="3.63" departLane="best" departSpeed="max" from="671962727" to="25794650"/>
    <trip id="veh35" type="veh_passenger" depart="3.74" departLane="best" from="17152412#1" to="1088980782"/>
    <trip id="veh36" type="veh_passenger" depart="3.85" departLane="best" departSpeed="max" from="552769056" to="17152412#1"/>
    <trip id="veh37" type="veh_passenger" depart="3.95" departLane="best" departSpeed="max" from="562968525#0" to="712411951"/>
    <trip id="veh38" type="veh_passenger" depart="4.06" departLane="best" departSpeed="max" from="27663230" to="808153986"/>
    <trip id="veh39" type="veh_passenger" depart="4.17" departLane="best" from="92357002" to="40796868#1"/>
    <trip id="veh40" type="veh_passenger" depart="4.27" departLane="best" departSpeed="max" from="-22729190#1" to="-186583685"/>
    <trip id="veh42" type="veh_passenger" depart="4.49" departLane="best" departSpeed="max" from="704887558#0" to="32946572"/>
    <trip id="veh43" type="veh_passenger" depart="4.60" departLane="best" from="-14712267" to="25784325#2"/>
    <trip id="veh44" type="veh_passenger" depart="4.70" departLane="best" from="92356998" to="4174072"/>
    <trip id="veh45" type="veh_passenger" depart="4.81" departLane="best" departSpeed="max" from="762325827" to="705369236#1"/>
    <trip id="veh46" type="veh_passenger" depart="4.92" departLane="best" departSpeed="max" from="-1088980782" to="704471783#0"/>
    <trip id="veh47" type="veh_passenger" depart="5.02" departLane="best" from="700695452#0" to="27663282"/>
    <trip id="veh51" type="veh_passenger" depart="5.45" departLane="best" departSpeed="max" from="705369253#0" to="17152532#1"/>
    <trip id="veh52" type="veh_passenger" depart="5.56" departLane="best" from="712417494#0" to="705369250"/>
    <trip id="veh54" type="veh_passenger" depart="5.77" departLane="best" departSpeed="max" from="571044351#0" to="-562968525#0"/>
    <trip id="veh55" type="veh_passenger" depart="5.88" departLane="best" departSpeed="max" from="704356343#0" to="-4418472"/>
    <trip id="veh56" type="veh_passenger" depart="5.98" departLane="best" departSpeed="max" from="704887558#0" to="4174072"/>
    <trip id="veh58" type="veh_passenger" depart="6.20" departLane="best" departSpeed="max" from="-1101598986" to="738552207"/>
    <trip id="veh61" type="veh_passenger" depart="6.52" departLane="best" departSpeed="max" from="-22648376#4" to="374119556"/>
    <trip id="veh62" type="veh_passenger" depart="6.63" departLane="best" departSpeed="max" from="-20961487" to="704887559#1"/>
    <trip id="veh64" type="veh_passenger" depart="6.84" departLane="best" departSpeed="max" from="34883547" to="4940456#4"/>
    <trip id="veh65" type="veh_passenger" depart="6.95" departLane="best" from="17152412#1" to="706054788#1"/>
    <trip id="veh66" type="veh_passenger" depart="7.05" departLane="best" departSpeed="max" from="30763991" to="-711293109"/>
    <trip id="veh67" type="veh_passenger" depart="7.16" departLane="best" departSpeed="max" from="547667540#0" to="704887559#1"/>
    <trip id="veh68" type="veh_passenger" depart="7.27" departLane="best" departSpeed="max" from="1010341986#0" to="22648376#4"/>
    <trip id="veh70" type="veh_passenger" depart="7.48" departLane="best" departSpeed="max" from="30763991" to="4089442#0"/>
    <trip id="veh71" type="veh_passenger" depart="7.59" departLane="best" departSpeed="max" from="-25784325#2" to="1010341986#1"/>
    <trip id="veh73" type="veh_passenger" depart="7.80" departLane="best" departSpeed="max" from="109033611#0" to="-840877171#0"/>
    <trip id="veh74" type="veh_passenger" depart="7.91" departLane="best" departSpeed="max" from="-20961487" to="-702465338#0"/>
    <trip id="veh75" type="veh_passenger" depart="8.01" departLane="best" departSpeed="max" from="109033611#0" to="712412891#2"/>
    <trip id="veh76" type="veh_passenger" depart="8.12" departLane="best" departSpeed="max" from="705369253#0" to="-22729176#7"/>
    <trip id="veh77" type="veh_passenger" depart="8.23" departLane="best" from="126978647#1" to="700720877"/>
    <trip id="veh79" type="veh_passenger" depart="8.44" departLane="best" departSpeed="max" from="738588370" to="54030324#1"/>
    <trip id="veh80" type="veh_passenger" depart="8.55" departLane="best" departSpeed="max" from="34883547" to="705241296#4"/>
    <trip id="veh81" type="veh_passenger" depart="8.66" departLane="best" departSpeed="max" from="-22729190#1" to="32946572"/>
    <trip id="veh82" type="veh_passenger" depart="8.76" departLane="best" departSpeed="max" from="30763991" to="374119549#0"/>
    <trip id="veh85" type="veh_passenger" depart="9.08" departLane="best" departSpeed="max" from="705369253#0" to="1123113144"/>
    <trip id="veh86" type="veh_passenger" depart="9.19" departLane="best" departSpeed="max" from="-824674208" to="374114342#0"/>
    <trip id="veh87" type="veh_passenger" depart="9.30" departLane="best" departSpeed="max" from="28573721#0" to="188163087"/>
    <trip id="veh88" type="veh_passenger" depart="9.40" departLane="best" departSpeed="max" from="144850884#0" to="712675950"/>
    <trip id="veh89" type="veh_passenger" depart="9.51" departLane="best" departSpeed="max" from="30763991" to="705369236#1"/>
    <trip id="veh91" type="veh_passenger" depart="9.72" departLane="best" from="99485069#0" to="705361742#1"/>
    <trip id="veh92" type="veh_passenger" depart="9.83" departLane="best" from="762059650#3" to="712684280#0"/>
    <trip id="veh93" type="veh_passenger" depart="9.94" departLane="best" from="-705369236#0" to="-628567747"/>
    <trip id="veh94" type="veh_passenger" depart="10.04" departLane="best" from="700695451#2" to="-712668426"/>
    <trip id="veh97" type="veh_passenger" depart="10.37" departLane="best" from="17152412#1" to="705241296#4"/>
    <trip id="veh98" type="veh_passenger" depart="10.47" departLane="best" departSpeed="max" from="30763991" to="32946572"/>
    <trip id="veh99" type="veh_passenger" depart="10.58" departLane="best" departSpeed="max" from="762037983" to="895471678"/>
    <trip id="veh100" type="veh_passenger" depart="10.69" departLane="best" from="547667543#2" to="704356345#0"/>
    <trip id="veh102" type="veh_passenger" depart="10.90" departLane="best" departSpeed="max" from="547667540#0" to="704887559#1"/>
    <trip id="veh103" type="veh_passenger" depart="11.01" departLane="best" departSpeed="max" from="-119300654" to="547665432#1"/>
    <trip id="veh106" type="veh_passenger" depart="11.33" departLane="best" departSpeed="max" from="-22648376#4" to="-628567747"/>
    <trip id="veh107" type="veh_passenger" depart="11.43" departLane="best" departSpeed="max" from="571044351#0" to="701378346#2"/>
    <trip id="veh108" type="veh_passenger" depart="11.54" departLane="best" from="1198240220" to="-320330029#0"/>
    <trip id="veh109" type="veh_passenger" depart="11.65" departLane="best" from="706191003#0" to="1088980782"/>
    <trip id="veh111" type="veh_passenger" depart="11.86" departLane="best" departSpeed="max" from="28573721#0" to="547665432#1"/>
    <trip id="veh113" type="veh_passenger" depart="12.08" departLane="best" departSpeed="max" from="1010341986#0" to="704341115#1"/>
    <trip id="veh114" type="veh_passenger" depart="12.18" departLane="best" from="1271369499" to="25794650"/>
    <trip id="veh115" type="veh_passenger" depart="12.29" departLane="best" departSpeed="max" from="671962727" to="220840489#1"/>
    <trip id="veh116" type="veh_passenger" depart="12.40" departLane="best" departSpeed="max" from="22729184#0" to="704887559#1"/>
    <trip id="veh117" type="veh_passenger" depart="12.50" departLane="best" departSpeed="max" from="-20961487" to="-712411965#0"/>
    <trip id="veh118" type="veh_passenger" depart="12.61" departLane="best" from="17152412#1" to="749318776#0-AddedOnRampEdge"/>
    <trip id="veh119" type="veh_passenger" depart="12.72" departLane="best" departSpeed="max" from="705369253#0" to="711230098"/>
    <trip id="veh121" type="veh_passenger" depart="12.93" departLane="best" departSpeed="max" from="671962727" to="-1010341986#0"/>
    <trip id="veh122" type="veh_passenger" depart="13.04" departLane="best" from="705166267" to="220840489#0"/>
    <trip id="veh123" type="veh_passenger" depart="13.14" departLane="best" departSpeed="max" from="671962727" to="762046241"/>
    <trip id="veh127" type="veh_passenger" depart="13.57" departLane="best" departSpeed="max" from="628567747" to="179384091#2"/>
    <trip id="veh128" type="veh_passenger" depart="13.68" departLane="best" from="38343253#1" to="712412891#2"/>
    <trip id="veh130" type="veh_passenger" depart="13.89" departLane="best" departSpeed="max" from="30763991" to="188163087"/>
    <trip id="veh131" type="veh_passenger" depart="14.00" departLane="best" departSpeed="max" from="-1088980782" to="705241296#1"/>
    <trip id="veh132" type="veh_passenger" depart="14.11" departLane="best" departSpeed="max" from="628567747" to="132684531"/>
    <trip id="veh133" type="veh_passenger" depart="14.21" departLane="best" from="704341118#1" to="4940456#4"/>
    <trip id="veh135" type="veh_passenger" depart="14.43" departLane="best" from="-21230406#0" to="711230098"/>
    <trip id="veh136" type="veh_passenger" depart="14.53" departLane="best" from="712412891#0" to="4940456#4"/>
    <trip id="veh137" type="veh_passenger" depart="14.64" departLane="best" departSpeed="max" from="705241291#0" to="547665432#1"/>
    <trip id="veh139" type="veh_passenger" depart="14.85" departLane="best" from="22697402#4" to="712411956"/>
    <trip id="veh140" type="veh_passenger" depart="14.96" departLane="best" departSpeed="max" from="704887558#0" to="705369236#1"/>
    <trip id="veh141" type="veh_passenger" depart="15.07" departLane="best" from="712411960" to="-706191001#0"/>
    <trip id="veh143" type="veh_passenger" depart="15.28" departLane="best" departSpeed="max" from="704887558#0" to="711230098"/>
    <trip id="veh146" type="veh_passenger" depart="15.60" departLane="best" departSpeed="max" from="705369253#0" to="824674208"/>
    <trip id="veh147" type="veh_passenger" depart="15.71" departLane="best" departSpeed="max" from="704887558#0" to="711230098"/>
    <trip id="veh148" type="veh_passenger" depart="15.82" departLane="best" departSpeed="max" from="-1101598986" to="704887559#1"/>
    <trip id="veh150" type="veh_passenger" depart="16.03" departLane="best" departSpeed="max" from="704887558#0" to="705369236#1"/>
    <trip id="veh151" type="veh_passenger" depart="16.14" departLane="best" departSpeed="max" from="704887558#0" to="-18018451#6"/>
    <trip id="veh153" type="veh_passenger" depart="16.35" departLane="best" departSpeed="max" from="705369253#0" to="705369236#1"/>
    <trip id="veh154" type="veh_passenger" depart="16.46" departLane="best" from="108060096#2" to="705361742#1"/>
    <trip id="veh155" type="veh_passenger" depart="16.56" departLane="best" departSpeed="max" from="704887558#0" to="1076616353"/>
    <trip id="veh156" type="veh_passenger" depart="16.67" departLane="best" departSpeed="max" from="-1101598986" to="-705233292"/>
    <trip id="veh158" type="veh_passenger" depart="16.88" departLane="best" from="762059650#0" to="188163087"/>
    <trip id="veh159" type="veh_passenger" depart="16.99" departLane="best" from="654885033" to="25794650"/>
    <trip id="veh162" type="veh_passenger" depart="17.31" departLane="best" from="762059653#1" to="-628567747"/>
    <trip id="veh163" type="veh_passenger" depart="17.42" departLane="best" departSpeed="max" from="762037983" to="179384093"/>
    <trip id="veh165" type="veh_passenger" depart="17.63" departLane="best" from="703430056#1" to="22648376#4"/>
    <trip id="veh166" type="veh_passenger" depart="17.74" departLane="best" departSpeed="max" from="571044351#0" to="40796868#1"/>
    <trip id="veh167" type="veh_passenger" depart="17.85" departLane="best" departSpeed="max" from="27663230" to="547665432#1"/>
    <trip id="veh168" type="veh_passenger" depart="17.95" departLane="best" departSpeed="max" from="144850884#0" to="703998734#1"/>
    <trip id="veh169" type="veh_passenger" depart="18.06" departLane="best" departSpeed="max" from="-1088980782" to="-738574688#0"/>
    <trip id="veh170" type="veh_passenger" depart="18.17" departLane="best" departSpeed="max" from="547667540#0" to="704356346#0"/>
    <trip id="veh171" type="veh_passenger" depart="18.27" departLane="best" departSpeed="max" from="704356343#0" to="700877938"/>
    <trip id="veh172" type="veh_passenger" depart="18.38" departLane="best" from="2668746" to="-22729176#2"/>
    <trip id="veh173" type="veh_passenger" depart="18.49" departLane="best" departSpeed="max" from="671962727" to="22729190#1"/>
    <trip id="veh174" type="veh_passenger" depart="18.59" departLane="best" departSpeed="max" from="22729184#0" to="705369236#1"/>
    <trip id="veh175" type="veh_passenger" depart="18.70" departLane="best" departSpeed="max" from="703401991" to="220840489#2"/>
    <trip id="veh176" type="veh_passenger" depart="18.81" departLane="best" from="22697402#7" to="712675946#1"/>
    <trip id="veh177" type="veh_passenger" depart="18.91" departLane="best" departSpeed="max" from="-25784325#2" to="32946572"/>
    <trip id="veh178" type="veh_passenger" depart="19.02" departLane="best" departSpeed="max" from="738588370" to="701516271#0"/>
    <trip id="veh180" type="veh_passenger" depart="19.23" departLane="best" from="22598132#1" to="4940456#4"/>
    <trip id="veh181" type="veh_passenger" depart="19.34" departLane="best" from="-1010341988#0" to="188163087"/>
    <trip id="veh182" type="veh_passenger" depart="19.45" departLane="best" departSpeed="max" from="30763991" to="547665432#1"/>
    <trip id="veh183" type="veh_passenger" depart="19.56" departLane="best" departSpeed="max" from="671962727" to="374119549#0"/>
    <trip id="veh184" type="veh_passenger" depart="19.66" departLane="best" departSpeed="max" from="30763991" to="-712668426"/>
    <trip id="veh185" type="veh_passenger" depart="19.77" departLane="best" departSpeed="max" from="34883547" to="712411964#0"/>
    <trip id="veh186" type="veh_passenger" depart="19.88" departLane="best" departSpeed="max" from="704887558#0" to="-628567747"/>
    <trip id="veh187" type="veh_passenger" depart="19.98" departLane="best" departSpeed="max" from="-22648376#4" to="4086409#0"/>
    <trip id="veh188" type="veh_passenger" depart="20.09" departLane="best" departSpeed="max" from="628567747" to="22729190#1"/>
    <trip id="veh189" type="veh_passenger" depart="20.20" departLane="best" from="705233294" to="704887559#1"/>
    <trip id="veh190" type="veh_passenger" depart="20.30" departLane="best" from="-86720809#8" to="-109033611#0"/>
    <trip id="veh191" type="veh_passenger" depart="20.41" departLane="best" from="704902690#1" to="374119556"/>
    <trip id="veh192" type="veh_passenger" depart="20.52" departLane="best" from="705369252#0" to="-22729184#0"/>
    <trip id="veh193" type="veh_passenger" depart="20.62" departLane="best" departSpeed="max" from="28573721#0" to="658325610#1"/>
    <trip id="veh196" type="veh_passenger" depart="20.94" departLane="best" departSpeed="max" from="671962727" to="-1010341986#0"/>
    <trip id="veh197" type="veh_passenger" depart="21.05" departLane="best" departSpeed="max" from="704356343#0" to="705241295"/>
    <trip id="veh201" type="veh_passenger" depart="21.48" departLane="best" departSpeed="max" from="144850884#0" to="705369236#1"/>
    <trip id="veh202" type="veh_passenger" depart="21.59" departLane="best" departSpeed="max" from="30763991" to="705241296#4"/>
    <trip id="veh203" type="veh_passenger" depart="21.69" departLane="best" departSpeed="max" from="671962727" to="824674208"/>
    <trip id="veh205" type="veh_passenger" depart="21.91" departLane="best" from="706191004#1" to="573621956#4"/>
    <trip id="veh206" type="veh_passenger" depart="22.01" departLane="best" departSpeed="max" from="703401991" to="40796868#1"/>
    <trip id="veh207" type="veh_passenger" depart="22.12" departLane="best" departSpeed="max" from="705241291#0" to="4940456#4"/>
    <trip id="veh208" type="veh_passenger" depart="22.23" departLane="best" from="712411955#0" to="704887559#1"/>
    <trip id="veh209" type="veh_passenger" depart="22.33" departLane="best" departSpeed="max" from="34883547" to="132684527#6"/>
    <trip id="veh210" type="veh_passenger" depart="22.44" departLane="best" departSpeed="max" from="704356343#0" to="4174072"/>
    <trip id="veh211" type="veh_passenger" depart="22.55" departLane="best" departSpeed="max" from="628567747" to="188163087"/>
    <trip id="veh212" type="veh_passenger" depart="22.65" departLane="best" departSpeed="max" from="-22648376#4" to="188163087"/>
    <trip id="veh216" type="veh_passenger" depart="23.08" departLane="best" departSpeed="max" from="28573721#0" to="-4940449#1"/>
    <trip id="veh218" type="veh_passenger" depart="23.30" departLane="best" departSpeed="max" from="28573721#0" to="712412891#1"/>
    <trip id="veh220" type="veh_passenger" depart="23.51" departLane="best" departSpeed="max" from="705369253#0" to="705166265"/>
    <trip id="veh224" type="veh_passenger" depart="23.94" departLane="best" departSpeed="max" from="28573721#0" to="704887559#1"/>
    <trip id="veh225" type="veh_passenger" depart="24.04" departLane="best" departSpeed="max" from="547667540#0" to="570477020"/>
    <trip id="veh226" type="veh_passenger" depart="24.15" departLane="best" from="1076616353" to="808153986"/>
    <trip id="veh227" type="veh_passenger" depart="24.26" departLane="best" departSpeed="max" from="30763991" to="-1179636335"/>
    <trip id="veh229" type="veh_passenger" depart="24.47" departLane="best" from="28573506#1" to="-628567747"/>
    <trip id="veh231" type="veh_passenger" depart="24.68" departLane="best" departSpeed="max" from="628567747" to="-109033611#1"/>
    <trip id="veh232" type="veh_passenger" depart="24.79" departLane="best" departSpeed="max" from="27663230" to="52871176#1"/>
    <trip id="veh234" type="veh_passenger" depart="25.01" departLane="best" departSpeed="max" from="-4940456#4" to="374119549#0"/>
    <trip id="veh235" type="veh_passenger" depart="25.11" departLane="best" departSpeed="max" from="-119300654" to="25784325#2"/>
    <trip id="veh237" type="veh_passenger" depart="25.33" departLane="best" departSpeed="max" from="704356343#0" to="25784325#2"/>
    <trip id="veh238" type="veh_passenger" depart="25.43" departLane="best" departSpeed="max" from="704356343#0" to="705361742#1"/>
    <trip id="veh239" type="veh_passenger" depart="25.54" departLane="best" departSpeed="max" from="144850884#0" to="-22729199"/>
    <trip id="veh240" type="veh_passenger" depart="25.65" departLane="best" departSpeed="max" from="-1101598986" to="-4418472"/>
    <trip id="veh242" type="veh_passenger" depart="25.86" departLane="best" departSpeed="max" from="671962727" to="705241296#4"/>
    <trip id="veh243" type="veh_passenger" depart="25.97" departLane="best" departSpeed="max" from="671962727" to="704887559#1"/>
    <trip id="veh244" type="veh_passenger" depart="26.07" departLane="best" departSpeed="max" from="762037983" to="-705233292"/>
    <trip id="veh245" type="veh_passenger" depart="26.18" departLane="best" departSpeed="max" from="-1101598986" to="-562968525#0"/>
    <trip id="veh246" type="veh_passenger" depart="26.29" departLane="best" departSpeed="max" from="-25784325#2" to="700720881"/>
    <trip id="veh247" type="veh_passenger" depart="26.39" departLane="best" departSpeed="max" from="552769056" to="738574691"/>
    <trip id="veh253" type="veh_passenger" depart="27.04" departLane="best" from="22729180#1" to="676674453"/>
    <trip id="veh254" type="veh_passenger" depart="27.14" departLane="best" departSpeed="max" from="762037983" to="25794650"/>
    <trip id="veh255" type="veh_passenger" depart="27.25" departLane="best" departSpeed="max" from="703401991" to="-22729184#0"/>
    <trip id="veh256" type="veh_passenger" depart="27.36" departLane="best" from="700711763" to="654885033"/>
    <trip id="veh258" type="veh_passenger" depart="27.57" departLane="best" from="705369245" to="570477020"/>
    <trip id="veh259" type="veh_passenger" depart="27.68" departLane="best" departSpeed="max" from="-25784325#2" to="824674208"/>
    <trip id="veh261" type="veh_passenger" depart="27.89" departLane="best" departSpeed="max" from="30763991" to="24530871"/>
    <trip id="veh264" type="veh_passenger" depart="28.21" departLane="best" departSpeed="max" from="628567747" to="705361742#1"/>
    <trip id="veh265" type="veh_passenger" depart="28.32" departLane="best" from="702461325#1" to="32946572"/>
    <trip id="veh267" type="veh_passenger" depart="28.53" departLane="best" from="184842504" to="705249099#0"/>
    <trip id="veh268" type="veh_passenger" depart="28.64" departLane="best" departSpeed="max" from="547667540#0" to="374119556"/>
    <trip id="veh269" type="veh_passenger" depart="28.75" departLane="best" departSpeed="max" from="30763991" to="704887559#1"/>
    <trip id="veh270" type="veh_passenger" depart="28.85" departLane="best" from="18018451#2" to="705369236#1"/>
    <trip id="veh272" type="veh_passenger" depart="29.07" departLane="best" departSpeed="max" from="705369253#0" to="1088980782"/>
    <trip id="veh273" type="veh_passenger" depart="29.17" departLane="best" from="32946689#1" to="573621956#1"/>
    <trip id="veh275" type="veh_passenger" depart="29.39" departLane="best" from="705369246" to="-628567747"/>
    <trip id="veh278" type="veh_passenger" depart="29.71" departLane="best" from="701597908" to="188163087"/>
    <trip id="veh280" type="veh_passenger" depart="29.92" departLane="best" departSpeed="max" from="-22648376#4" to="704463542#1"/>
    <trip id="veh281" type="veh_passenger" depart="30.03" departLane="best" from="38343253#1" to="704887559#1"/>
    <trip id="veh283" type="veh_passenger" depart="30.24" departLane="best" from="40260109#0" to="705241296#4"/>
    <trip id="veh284" type="veh_passenger" depart="30.35" departLane="best" departSpeed="max" from="-22729190#1" to="-86720809#10"/>
    <trip id="veh285" type="veh_passenger" depart="30.46" departLane="best" from="700720877" to="22598124#2"/>
    <trip id="veh286" type="veh_passenger" depart="30.56" departLane="best" departSpeed="max" from="562968525#0" to="374119556"/>
    <trip id="veh287" type="veh_passenger" depart="30.67" departLane="best" from="-4940456#2" to="32946572"/>
    <trip id="veh288" type="veh_passenger" depart="30.78" departLane="best" departSpeed="max" from="704356343#0" to="22729190#1"/>
    <trip id="veh289" type="veh_passenger" depart="30.88" departLane="best" from="701621703#2" to="188163087"/>
    <trip id="veh290" type="veh_passenger" depart="30.99" departLane="best" departSpeed="max" from="144850884#0" to="4418472"/>
    <trip id="veh291" type="veh_passenger" depart="31.10" departLane="best" departSpeed="max" from="-824674208" to="320330029#0"/>
    <trip id="veh292" type="veh_passenger" depart="31.20" departLane="best" departSpeed="max" from="547667540#0" to="704887559#1"/>
    <trip id="veh293" type="veh_passenger" depart="31.31" departLane="best" departSpeed="max" from="-824674208" to="738552206"/>
    <trip id="veh294" type="veh_passenger" depart="31.42" departLane="best" from="374114346#3" to="704565015#1"/>
    <trip id="veh295" type="veh_passenger" depart="31.52" departLane="best" departSpeed="max" from="762325827" to="4174072"/>
    <trip id="veh297" type="veh_passenger" depart="31.74" departLane="best" departSpeed="max" from="-824674208" to="1076616353"/>
    <trip id="veh300" type="veh_passenger" depart="32.06" departLane="best" departSpeed="max" from="762325827" to="5018756#0"/>
    <trip id="veh302" type="veh_passenger" depart="32.27" departLane="best" departSpeed="max" from="705369253#0" to="374119558"/>
    <trip id="veh303" type="veh_passenger" depart="32.38" departLane="best" departSpeed="max" from="705369253#0" to="547665432#1"/>
    <trip id="veh304" type="veh_passenger" depart="32.49" departLane="best" departSpeed="max" from="34883547" to="32946572"/>
    <trip id="veh306" type="veh_passenger" depart="32.70" departLane="best" from="749318776#0" to="374119556"/>
    <trip id="veh307" type="veh_passenger" depart="32.81" departLane="best" departSpeed="max" from="705241291#0" to="25794650"/>
    <trip id="veh308" type="veh_passenger" depart="32.91" departLane="best" departSpeed="max" from="-20961487" to="654885090"/>
    <trip id="veh309" type="veh_passenger" depart="33.02" departLane="best" departSpeed="max" from="-119300654" to="-547667540#1"/>
    <trip id="veh310" type="veh_passenger" depart="33.13" departLane="best" departSpeed="max" from="552769056" to="22598088#4"/>
    <trip id="veh312" type="veh_passenger" depart="33.34" departLane="best" departSpeed="max" from="704356343#0" to="570477020"/>
    <trip id="veh315" type="veh_passenger" depart="33.66" departLane="best" departSpeed="max" from="30763991" to="705369236#1"/>
    <trip id="veh316" type="veh_passenger" depart="33.77" departLane="best" from="761304863#4" to="22598114#3"/>