<?xml version="1.0" encoding="UTF-8"?>

<!-- generated on 2024-06-23 15:45:23.640121 by osmWebWizard.py v1_19_0+0000-baa66a0f364
<configuration>
    <net-file value="C:\Users\HP_Demo\Sumo\2024-06-23-15-44-59\osm.net.xml.gz"/>
    <output-trip-file value="C:\Users\HP_Demo\Sumo\2024-06-23-15-44-59\osm.motorcycle.trips.xml"/>
    <route-file value="C:\Users\HP_Demo\Sumo\2024-06-23-15-44-59\osm.motorcycle.rou.xml"/>
    <prefix value="motorcycle"/>
    <trip-attributes value="departLane=&quot;best&quot;"/>
    <fringe-start-attributes value="departSpeed=&quot;max&quot;"/>
    <vehicle-class value="motorcycle"/>
    <fringe-factor value="50"/>
    <vclass value="motorcycle"/>
    <via-edge-types value="highway.motorway,highway.motorway_link,highway.trunk_link,highway.primary_link,highway.secondary_link,highway.tertiary_link"/>
    <max-distance value="1200.0"/>
    <remove-loops value="True"/>
    <validate value="True"/>
    <insertion-density value="200.0"/>
</configuration>
-->

<!-- generated on 2024-06-23 15:45:18 by Eclipse SUMO duarouter Version 1.19.0
<configuration xmlns:xsi="http://www.w3.org/2001/XMLSchema-instance" xsi:noNamespaceSchemaLocation="http://sumo.dlr.de/xsd/duarouterConfiguration.xsd">

    <input>
        <net-file value="C:\Users\HP_Demo\Sumo\2024-06-23-15-44-59\osm.net.xml.gz"/>
        <route-files value="C:\Users\HP_Demo\Sumo\2024-06-23-15-44-59\osm.motorcycle.trips.xml"/>
    </input>

    <output>
        <output-file value="C:\Users\HP_Demo\Sumo\2024-06-23-15-44-59\osm.motorcycle.trips.xml.tmp"/>
        <alternatives-output value="NUL"/>
        <write-trips value="true"/>
    </output>

    <processing>
        <remove-loops value="true"/>
    </processing>

    <time>
        <begin value="0.0"/>
        <end value="3600.0"/>
    </time>

    <report>
        <no-warnings value="true"/>
        <ignore-errors value="true"/>
        <no-step-log value="true"/>
    </report>

</configuration>
-->

<routes xmlns:xsi="http://www.w3.org/2001/XMLSchema-instance" xsi:noNamespaceSchemaLocation="http://sumo.dlr.de/xsd/routes_file.xsd">
    <vType id="motorcycle_motorcycle" vClass="motorcycle" laneChangeModel="SL2015" 
    minGap="1" lcSublane="1" lcAssertive=".7" latAlignment="compact" lcStrategic="0" 
    lcCooperative="0" lcOpposite="5" lcPushy="1" minGapLat="0.6" lcImpatience="1"/>
    <trip id="motorcycle0" type="motorcycle_motorcycle" depart="0.00" departLane="best" from="-712411965#0" to="27661428#1"/>
    <trip id="motorcycle1" type="motorcycle_motorcycle" depart="0.22" departLane="best" departSpeed="max" from="552769056" to="374114345#1"/>
    <trip id="motorcycle2" type="motorcycle_motorcycle" depart="0.44" departLane="best" departSpeed="max" from="762037983" to="1076411947#1"/>
    <trip id="motorcycle4" type="motorcycle_motorcycle" depart="0.87" departLane="best" from="22598088#3" to="374119549#0"/>
    <trip id="motorcycle6" type="motorcycle_motorcycle" depart="1.31" departLane="best" from="573636377#0" to="-1179636335"/>
    <trip id="motorcycle7" type="motorcycle_motorcycle" depart="1.52" departLane="best" departSpeed="max" from="-22648376#4" to="-628567747"/>
    <trip id="motorcycle8" type="motorcycle_motorcycle" depart="1.74" departLane="best" from="-205382763#1" to="-547667540#0"/>
    <trip id="motorcycle9" type="motorcycle_motorcycle" depart="1.96" departLane="best" from="-22729190#0" to="712682734"/>
    <trip id="motorcycle11" type="motorcycle_motorcycle" depart="2.40" departLane="best" from="-86720809#1" to="52871176#1"/>
    <trip id="motorcycle12" type="motorcycle_motorcycle" depart="2.61" departLane="best" departSpeed="max" from="34883547" to="570477020"/>
    <trip id="motorcycle15" type="motorcycle_motorcycle" depart="3.27" departLane="best" from="-705369238" to="738574697#0"/>
    <trip id="motorcycle16" type="motorcycle_motorcycle" depart="3.48" departLane="best" departSpeed="max" from="705369253#0" to="-1076670496#1"/>
    <trip id="motorcycle17" type="motorcycle_motorcycle" depart="3.70" departLane="best" departSpeed="max" from="552769056" to="22604035#3"/>
    <trip id="motorcycle19" type="motorcycle_motorcycle" depart="4.14" departLane="best" from="374114342#1" to="-705233292"/>
    <trip id="motorcycle20" type="motorcycle_motorcycle" depart="4.35" departLane="best" from="22697402#2" to="-562968525#0"/>
    <trip id="motorcycle21" type="motorcycle_motorcycle" depart="4.57" departLane="best" from="99485069#0" to="27831387#1"/>
    <trip id="motorcycle22" type="motorcycle_motorcycle" depart="4.79" departLane="best" from="-22729176#5" to="-1179636335"/>
    <trip id="motorcycle24" type="motorcycle_motorcycle" depart="5.23" departLane="best" from="92357005" to="32946572"/>
    <trip id="motorcycle25" type="motorcycle_motorcycle" depart="5.44" departLane="best" from="562968525#2" to="32946692#0"/>
    <trip id="motorcycle26" type="motorcycle_motorcycle" depart="5.66" departLane="best" from="22729197#2" to="22729190#1"/>
    <trip id="motorcycle27" type="motorcycle_motorcycle" depart="5.88" departLane="best" departSpeed="max" from="705369253#0" to="-705233292"/>
    <trip id="motorcycle28" type="motorcycle_motorcycle" depart="6.10" departLane="best" departSpeed="max" from="27663230" to="-320330029#1"/>
    <trip id="motorcycle29" type="motorcycle_motorcycle" depart="6.31" departLane="best" from="712417481" to="705369236#1"/>
    <trip id="motorcycle30" type="motorcycle_motorcycle" depart="6.53" departLane="best" departSpeed="max" from="4938375" to="-27274692"/>
    <trip id="motorcycle31" type="motorcycle_motorcycle" depart="6.75" departLane="best" departSpeed="max" from="705369253#0" to="705241296#4"/>
    <trip id="motorcycle32" type="motorcycle_motorcycle" depart="6.97" departLane="best" from="22648395#6" to="25784325#2"/>
    <trip id="motorcycle33" type="motorcycle_motorcycle" depart="7.19" departLane="best" from="-22648376#2" to="676674453"/>
    <trip id="motorcycle34" type="motorcycle_motorcycle" depart="7.40" departLane="best" from="701096364#0" to="-22729184#1"/>
    <trip id="motorcycle36" type="motorcycle_motorcycle" depart="7.84" departLane="best" from="22729194#0" to="-547667543#0"/>
    <trip id="motorcycle39" type="motorcycle_motorcycle" depart="8.49" departLane="best" from="92357007" to="54030331"/>
    <trip id="motorcycle41" type="motorcycle_motorcycle" depart="8.93" departLane="best" from="705241293" to="-18018451#5"/>
    <trip id="motorcycle42" type="motorcycle_motorcycle" depart="9.15" departLane="best" departSpeed="max" from="-824674208" to="-547667543#0"/>
    <trip id="motorcycle43" type="motorcycle_motorcycle" depart="9.36" departLane="best" from="1240681179" to="22729197#0"/>
    <trip id="motorcycle44" type="motorcycle_motorcycle" depart="9.58" departLane="best" departSpeed="max" from="738588370" to="374119556"/>
    <trip id="motorcycle45" type="motorcycle_motorcycle" depart="9.80" departLane="best" departSpeed="max" from="-22729190#1" to="22729190#1"/>
    <trip id="motorcycle46" type="motorcycle_motorcycle" depart="10.02" departLane="best" from="-840838450#3" to="205382763#0"/>
    <trip id="motorcycle47" type="motorcycle_motorcycle" depart="10.23" departLane="best" from="22697402#8" to="18018451#8"/>
    <trip id="motorcycle50" type="motorcycle_motorcycle" depart="10.89" departLane="best" departSpeed="max" from="34883547" to="-1179636335"/>
    <trip id="motorcycle51" type="motorcycle_motorcycle" depart="11.10" departLane="best" from="-99485069#3" to="705241296#4"/>
    <trip id="motorcycle52" type="motorcycle_motorcycle" depart="11.32" departLane="best" from="762059653#0" to="712675950"/>
    <trip id="motorcycle53" type="motorcycle_motorcycle" depart="11.54" departLane="best" departSpeed="max" from="34883547" to="658325611#0"/>
    <trip id="motorcycle54" type="motorcycle_motorcycle" depart="11.76" departLane="best" from="762059653#0" to="40796868#0"/>
    <trip id="motorcycle55" type="motorcycle_motorcycle" depart="11.98" departLane="best" from="32090457" to="700704216"/>
    <trip id="motorcycle56" type="motorcycle_motorcycle" depart="12.19" departLane="best" from="27831387#0" to="705361742#1"/>
    <trip id="motorcycle57" type="motorcycle_motorcycle" depart="12.41" departLane="best" from="425374850" to="562968525#5"/>
    <trip id="motorcycle58" type="motorcycle_motorcycle" depart="12.63" departLane="best" from="706191003#0" to="-671307953#0"/>
    <trip id="motorcycle59" type="motorcycle_motorcycle" depart="12.85" departLane="best" from="425374849" to="-4940451#1"/>
    <trip id="motorcycle60" type="motorcycle_motorcycle" depart="13.06" departLane="best" departSpeed="max" from="22729184#0" to="40796868#1"/>
    <trip id="motorcycle61" type="motorcycle_motorcycle" depart="13.28" departLane="best" departSpeed="max" from="30763991" to="712675950"/>
    <trip id="motorcycle62" type="motorcycle_motorcycle" depart="13.50" departLane="best" departSpeed="max" from="-824674208" to="22604035#3"/>
    <trip id="motorcycle63" type="motorcycle_motorcycle" depart="13.72" departLane="best" from="132684529#0" to="700710940"/>
    <trip id="motorcycle64" type="motorcycle_motorcycle" depart="13.94" departLane="best" from="-99485069#2" to="92357005"/>
    <trip id="motorcycle65" type="motorcycle_motorcycle" depart="14.15" departLane="best" departSpeed="max" from="-22648376#4" to="-547667543#2"/>
    <trip id="motorcycle66" type="motorcycle_motorcycle" depart="14.37" departLane="best" from="1010341986#2" to="712675950"/>
    <trip id="motorcycle67" type="motorcycle_motorcycle" depart="14.59" departLane="best" departSpeed="max" from="705369253#0" to="706191001#1"/>
    <trip id="motorcycle68" type="motorcycle_motorcycle" depart="14.81" departLane="best" departSpeed="max" from="552769056" to="-1010341986#0"/>
    <trip id="motorcycle69" type="motorcycle_motorcycle" depart="15.02" departLane="best" departSpeed="max" from="552769059" to="712689933#0"/>
    <trip id="motorcycle70" type="motorcycle_motorcycle" depart="15.24" departLane="best" departSpeed="max" from="-25784325#2" to="-22729180#0"/>
    <trip id="motorcycle71" type="motorcycle_motorcycle" depart="15.46" departLane="best" from="-22729194#0" to="374119549#0"/>
    <trip id="motorcycle73" type="motorcycle_motorcycle" depart="15.90" departLane="best" from="27661474" to="712411961#1"/>
    <trip id="motorcycle76" type="motorcycle_motorcycle" depart="16.55" departLane="best" from="22729197#1" to="-1010341986#0"/>
    <trip id="motorcycle77" type="motorcycle_motorcycle" depart="16.77" departLane="best" departSpeed="max" from="-22648376#4" to="706191006#1"/>
    <trip id="motorcycle78" type="motorcycle_motorcycle" depart="16.98" departLane="best" from="712411961#1" to="374114346#1"/>
    <trip id="motorcycle79" type="motorcycle_motorcycle" depart="17.20" departLane="best" departSpeed="max" from="704887558#0" to="40796868#1"/>
    <trip id="motorcycle80" type="motorcycle_motorcycle" depart="17.42" departLane="best" from="711293093" to="-547667540#0"/>
    <trip id="motorcycle81" type="motorcycle_motorcycle" depart="17.64" departLane="best" departSpeed="max" from="703401991" to="706199045"/>
    <trip id="motorcycle82" type="motorcycle_motorcycle" depart="17.86" departLane="best" departSpeed="max" from="704356343#0" to="706191003#2"/>
    <trip id="motorcycle84" type="motorcycle_motorcycle" depart="18.29" departLane="best" departSpeed="max" from="703401991" to="-22648395#6"/>
    <trip id="motorcycle85" type="motorcycle_motorcycle" depart="18.51" departLane="best" from="705369245" to="705363305"/>
    <trip id="motorcycle86" type="motorcycle_motorcycle" depart="18.73" departLane="best" from="25945011#0" to="-99485069#0"/>
    <trip id="motorcycle87" type="motorcycle_motorcycle" depart="18.94" departLane="best" from="703998730#1" to="-562968525#5"/>
    <trip id="motorcycle88" type="motorcycle_motorcycle" depart="19.16" departLane="best" departSpeed="max" from="144850884#0" to="705369236#1"/>
    <trip id="motorcycle89" type="motorcycle_motorcycle" depart="19.38" departLane="best" from="547667543#0" to="22648376#4"/>
    <trip id="motorcycle90" type="motorcycle_motorcycle" depart="19.60" departLane="best" departSpeed="max" from="738588370" to="-22729180#0"/>
    <trip id="motorcycle91" type="motorcycle_motorcycle" depart="19.81" departLane="best" from="-22729195#0" to="22729190#1"/>
    <trip id="motorcycle92" type="motorcycle_motorcycle" depart="20.03" departLane="best" from="671307953#1" to="1076616353"/>
    <trip id="motorcycle93" type="motorcycle_motorcycle" depart="20.25" departLane="best" from="22604025#1" to="39077073#3"/>
    <trip id="motorcycle94" type="motorcycle_motorcycle" depart="20.47" departLane="best" departSpeed="max" from="1010341986#0" to="45016632"/>
    <trip id="motorcycle95" type="motorcycle_motorcycle" depart="20.69" departLane="best" from="-1010341988#0" to="712675950"/>
    <trip id="motorcycle96" type="motorcycle_motorcycle" depart="20.90" departLane="best" from="31661773#1" to="-671307953#0"/>
    <trip id="motorcycle97" type="motorcycle_motorcycle" depart="21.12" departLane="best" from="673512038" to="547696282#0"/>
    <trip id="motorcycle99" type="motorcycle_motorcycle" depart="21.56" departLane="best" from="132684527#2" to="705361742#1"/>
    <trip id="motorcycle100" type="motorcycle_motorcycle" depart="21.77" departLane="best" from="705249098" to="-86720809#1"/>
    <trip id="motorcycle102" type="motorcycle_motorcycle" depart="22.21" departLane="best" departSpeed="max" from="738588370" to="570477020"/>
    <trip id="motorcycle103" type="motorcycle_motorcycle" depart="22.43" departLane="best" from="712411957#1" to="462035254"/>
    <trip id="motorcycle104" type="motorcycle_motorcycle" depart="22.65" departLane="best" from="1154417363" to="374114349"/>
    <trip id="motorcycle105" type="motorcycle_motorcycle" depart="22.86" departLane="best" from="1010341986#1" to="-712668426"/>
    <trip id="motorcycle106" type="motorcycle_motorcycle" depart="23.08" departLane="best" from="22729202#0" to="40796868#1"/>
    <trip id="motorcycle107" type="motorcycle_motorcycle" depart="23.30" departLane="best" departSpeed="max" from="552769056" to="229922386#1"/>
    <trip id="motorcycle109" type="motorcycle_motorcycle" depart="23.73" departLane="best" from="22648395#4" to="31091044#1"/>
    <trip id="motorcycle110" type="motorcycle_motorcycle" depart="23.95" departLane="best" departSpeed="max" from="562968525#0" to="-562968525#0"/>
    <trip id="motorcycle112" type="motorcycle_motorcycle" depart="24.39" departLane="best" from="86720809#1" to="24530871"/>
    <trip id="motorcycle113" type="motorcycle_motorcycle" depart="24.61" departLane="best" departSpeed="max" from="705241291#0" to="-18018451#9"/>
    <trip id="motorcycle115" type="motorcycle_motorcycle" depart="25.04" departLane="best" departSpeed="max" from="552769056" to="-1010341986#0"/>
    <trip id="motorcycle116" type="motorcycle_motorcycle" depart="25.26" departLane="best" departSpeed="max" from="-22729190#1" to="-22729176#4"/>
    <trip id="motorcycle117" type="motorcycle_motorcycle" depart="25.48" departLane="best" departSpeed="max" from="-570477020" to="762059653#1"/>
    <trip id="motorcycle118" type="motorcycle_motorcycle" depart="25.69" departLane="best" from="28573721#1" to="-1179636335"/>
    <trip id="motorcycle119" type="motorcycle_motorcycle" depart="25.91" departLane="best" departSpeed="max" from="552769059" to="86714582#2"/>
    <trip id="motorcycle120" type="motorcycle_motorcycle" depart="26.13" departLane="best" from="706191003#2" to="4418466#1"/>
    <trip id="motorcycle121" type="motorcycle_motorcycle" depart="26.35" departLane="best" from="645172763" to="27661373#0"/>
    <trip id="motorcycle122" type="motorcycle_motorcycle" depart="26.56" departLane="best" departSpeed="max" from="704887558#0" to="374114349"/>
    <trip id="motorcycle123" type="motorcycle_motorcycle" depart="26.78" departLane="best" from="711144689#0" to="700695452#0"/>
    <trip id="motorcycle125" type="motorcycle_motorcycle" depart="27.22" departLane="best" from="-86720809#2" to="52871176#1"/>
    <trip id="motorcycle126" type="motorcycle_motorcycle" depart="27.44" departLane="best" from="701096364#0" to="31661773#2"/>
    <trip id="motorcycle127" type="motorcycle_motorcycle" depart="27.65" departLane="best" departSpeed="max" from="-22648376#4" to="-712411963#2"/>
    <trip id="motorcycle129" type="motorcycle_motorcycle" depart="28.09" departLane="best" departSpeed="max" from="-824674208" to="573621956#3"/>
    <trip id="motorcycle130" type="motorcycle_motorcycle" depart="28.31" departLane="best" departSpeed="max" from="628567747" to="-1268126328"/>
    <trip id="motorcycle131" type="motorcycle_motorcycle" depart="28.52" departLane="best" from="22729176#6" to="374114342#1"/>
    <trip id="motorcycle132" type="motorcycle_motorcycle" depart="28.74" departLane="best" departSpeed="max" from="22729184#0" to="-547667540#0"/>
    <trip id="motorcycle133" type="motorcycle_motorcycle" depart="28.96" departLane="best" departSpeed="max" from="22729184#0" to="712411960"/>
    <trip id="motorcycle134" type="motorcycle_motorcycle" depart="29.18" departLane="best" departSpeed="max" from="705241291#0" to="702461322#1"/>
    <trip id="motorcycle135" type="motorcycle_motorcycle" depart="29.40" departLane="best" from="22598114#3" to="-1010341986#0"/>
    <trip id="motorcycle137" type="motorcycle_motorcycle" depart="29.83" departLane="best" from="712668428" to="-562968525#0"/>
    <trip id="motorcycle139" type="motorcycle_motorcycle" depart="30.27" departLane="best" from="18018451#2" to="570477020"/>
    <trip id="motorcycle140" type="motorcycle_motorcycle" depart="30.48" departLane="best" from="22648395#3" to="374119556"/>
    <trip id="motorcycle141" type="motorcycle_motorcycle" depart="30.70" departLane="best" departSpeed="max" from="-1101598986" to="52871176#1"/>
    <trip id="motorcycle143" type="motorcycle_motorcycle" depart="31.14" departLane="best" from="700695452#0" to="705241296#4"/>
    <trip id="motorcycle146" type="motorcycle_motorcycle" depart="31.79" departLane="best" from="-99485069#4" to="14712267"/>
    <trip id="motorcycle148" type="motorcycle_motorcycle" depart="32.23" departLane="best" from="761311711" to="-4940470"/>
    <trip id="motorcycle149" type="motorcycle_motorcycle" depart="32.44" departLane="best" from="705249101#0" to="-562968525#0"/>
    <trip id="motorcycle151" type="motorcycle_motorcycle" depart="32.88" departLane="best" from="700684167#0" to="-22729176#7"/>
    <trip id="motorcycle153" type="motorcycle_motorcycle" depart="33.31" departLane="best" from="132684526#1" to="570477020"/>
    <trip id="motorcycle154" type="motorcycle_motorcycle" depart="33.53" departLane="best" departSpeed="max" from="762037983" to="22604035#6"/>
    <trip id="motorcycle156" type="motorcycle_motorcycle" depart="33.97" departLane="best" departSpeed="max" from="703401991" to="132684528"/>
    <trip id="motorcycle157" type="motorcycle_motorcycle" depart="34.19" departLane="best" departSpeed="max" from="28573721#0" to="1271369501#1"/>
    <trip id="motorcycle159" type="motorcycle_motorcycle" depart="34.62" departLane="best" departSpeed="max" from="628567747" to="22729190#1"/>
    <trip id="motorcycle160" type="motorcycle_motorcycle" depart="34.84" departLane="best" from="31467301" to="25784325#2"/>
    <trip id="motorcycle164" type="motorcycle_motorcycle" depart="35.71" departLane="best" from="-706054788#0" to="704463542#1"/>
    <trip id="motorcycle165" type="motorcycle_motorcycle" depart="35.93" departLane="best" from="1271369499" to="706191003#0"/>
    <trip id="motorcycle167" type="motorcycle_motorcycle" depart="36.36" departLane="best" from="-22648395#6" to="671307953#1"/>
    <trip id="motorcycle168" type="motorcycle_motorcycle" depart="36.58" departLane="best" from="27661474" to="701378346#0"/>
    <trip id="motorcycle169" type="motorcycle_motorcycle" depart="36.80" departLane="best" departSpeed="max" from="571044351#0" to="52871176#1"/>
    <trip id="motorcycle170" type="motorcycle_motorcycle" depart="37.02" departLane="best" from="31091043#1" to="22729176#5"/>
    <trip id="motorcycle171" type="motorcycle_motorcycle" depart="37.23" departLane="best" from="700547993#1" to="1123113143#0"/>
    <trip id="motorcycle173" type="motorcycle_motorcycle" depart="37.67" departLane="best" from="31091047" to="701621703#2"/>
    <trip id="motorcycle175" type="motorcycle_motorcycle" depart="38.11" departLane="best" from="-1076670496#1" to="-22604033#1"/>
    <trip id="motorcycle179" type="motorcycle_motorcycle" depart="38.98" departLane="best" from="705369246" to="38318883#1"/>
    <trip id="motorcycle181" type="motorcycle_motorcycle" depart="39.41" departLane="best" departSpeed="max" from="738588370" to="25784325#1"/>
    <trip id="motorcycle182" type="motorcycle_motorcycle" depart="39.63" departLane="best" from="704556778#0" to="22648376#4"/>
    <trip id="motorcycle183" type="motorcycle_motorcycle" depart="39.85" departLane="best" from="374114345#0" to="-86720809#6"/>
    <trip id="motorcycle184" type="motorcycle_motorcycle" depart="40.06" departLane="best" from="-86720809#9" to="-22729184#0"/>
    <trip id="motorcycle185" type="motorcycle_motorcycle" depart="40.28" departLane="best" from="700720884#0" to="4174072"/>
    <trip id="motorcycle188" type="motorcycle_motorcycle" depart="40.94" departLane="best" from="4089442#1" to="738552206"/>
    <trip id="motorcycle189" type="motorcycle_motorcycle" depart="41.15" departLane="best" departSpeed="max" from="552769059" to="712675950"/>
    <trip id="motorcycle190" type="motorcycle_motorcycle" depart="41.37" departLane="best" from="-22729196" to="374114345#0"/>
    <trip id="motorcycle191" type="motorcycle_motorcycle" depart="41.59" departLane="best" departSpeed="max" from="704887558#0" to="-18018451#6"/>
    <trip id="motorcycle192" type="motorcycle_motorcycle" depart="41.81" departLane="best" from="-4940470" to="99485069#4"/>
    <trip id="motorcycle193" type="motorcycle_motorcycle" depart="42.02" departLane="best" from="700684167#1" to="374119556"/>
    <trip id="motorcycle195" type="motorcycle_motorcycle" depart="42.46" departLane="best" departSpeed="max" from="144850884#0" to="-702465338#0"/>
    <trip id="motorcycle197" type="motorcycle_motorcycle" depart="42.90" departLane="best" departSpeed="max" from="704887558#0" to="38343252#1"/>
    <trip id="motorcycle199" type="motorcycle_motorcycle" depart="43.33" departLane="best" departSpeed="max" from="-119300654" to="700877938"/>
    <trip id="motorcycle203" type="motorcycle_motorcycle" depart="44.20" departLane="best" departSpeed="max" from="562968525#0" to="705361743#1"/>
    <trip id="motorcycle204" type="motorcycle_motorcycle" depart="44.42" departLane="best" from="-14712201" to="573621956#2"/>
    <trip id="motorcycle207" type="motorcycle_motorcycle" depart="45.07" departLane="best" from="22729176#1" to="31091044#0"/>
    <trip id="motorcycle208" type="motorcycle_motorcycle" depart="45.29" departLane="best" from="86714582#2" to="547665432#1"/>
    <trip id="motorcycle209" type="motorcycle_motorcycle" depart="45.51" departLane="best" from="32946689#1" to="-22648395#4"/>
    <trip id="motorcycle210" type="motorcycle_motorcycle" depart="45.73" departLane="best" from="700702826" to="4940456#4"/>
    <trip id="motorcycle213" type="motorcycle_motorcycle" depart="46.38" departLane="best" from="-86720809#2" to="712417480#1"/>
    <trip id="motorcycle214" type="motorcycle_motorcycle" depart="46.60" departLane="best" departSpeed="max" from="704887558#0" to="25794650"/>
    <trip id="motorcycle215" type="motorcycle_motorcycle" depart="46.82" departLane="best" departSpeed="max" from="628567747" to="27831387#0"/>
    <trip id="motorcycle216" type="motorcycle_motorcycle" depart="47.03" departLane="best" departSpeed="max" from="34883547" to="22598080#2"/>
    <trip id="motorcycle217" type="motorcycle_motorcycle" depart="47.25" departLane="best" from="712675947#2" to="27663282"/>
    <trip id="motorcycle218" type="motorcycle_motorcycle" depart="47.47" departLane="best" departSpeed="max" from="705369253#0" to="705369236#1"/>
    <trip id="motorcycle219" type="motorcycle_motorcycle" depart="47.69" departLane="best" departSpeed="max" from="22729184#0" to="712675950"/>
    <trip id="motorcycle220" type="motorcycle_motorcycle" depart="47.90" departLane="best" departSpeed="max" from="28573721#0" to="705148056#1"/>
    <trip id="motorcycle221" type="motorcycle_motorcycle" depart="48.12" departLane="best" from="-1076670496#1" to="-840877171#0"/>
    <trip id="motorcycle222" type="motorcycle_motorcycle" depart="48.34" departLane="best" from="31661773#1" to="132684527#2"/>
    <trip id="motorcycle223" type="motorcycle_motorcycle" depart="48.56" departLane="best" departSpeed="max" from="-627666449" to="627666449"/>
    <trip id="motorcycle224" type="motorcycle_motorcycle" depart="48.77" departLane="best" from="39077073#3" to="-628567747"/>
    <trip id="motorcycle225" type="motorcycle_motorcycle" depart="48.99" departLane="best" from="702461325#0" to="-1179636335"/>
    <trip id="motorcycle226" type="motorcycle_motorcycle" depart="49.21" departLane="best" departSpeed="max" from="704356343#0" to="22598092#1"/>
    <trip id="motorcycle227" type="motorcycle_motorcycle" depart="49.43" departLane="best" departSpeed="max" from="762325827" to="25794650"/>
    <trip id="motorcycle228" type="motorcycle_motorcycle" depart="49.65" departLane="best" departSpeed="max" from="-119300654" to="25945011#1"/>
    <trip id="motorcycle229" type="motorcycle_motorcycle" depart="49.86" departLane="best" from="654885033" to="22648376#4"/>
    <trip id="motorcycle231" type="motorcycle_motorcycle" depart="50.30" departLane="best" from="18018451#6" to="573621956#1"/>
    <trip id="motorcycle232" type="motorcycle_motorcycle" depart="50.52" departLane="best" departSpeed="max" from="705241291#0" to="705369236#0"/>
    <trip id="motorcycle233" type="motorcycle_motorcycle" depart="50.73" departLane="best" from="645172763" to="701381454#2"/>
    <trip id="motorcycle234" type="motorcycle_motorcycle" depart="50.95" departLane="best" from="705369239" to="-109033611#0"/>
    <trip id="motorcycle235" type="motorcycle_motorcycle" depart="51.17" departLane="best" from="712675946#1" to="99485069#0"/>
    <trip id="motorcycle236" type="motorcycle_motorcycle" depart="51.39" departLane="best" departSpeed="max" from="109033611#0" to="188163092#1"/>
    <trip id="motorcycle237" type="motorcycle_motorcycle" depart="51.61" departLane="best" from="-33513919#0" to="32946572"/>
    <trip id="motorcycle238" type="motorcycle_motorcycle" depart="51.82" departLane="best" from="374114346#4" to="703998740#2"/>
    <trip id="motorcycle240" type="motorcycle_motorcycle" depart="52.26" departLane="best" from="705369239" to="4940451#1"/>
    <trip id="motorcycle241" type="motorcycle_motorcycle" depart="52.48" departLane="best" from="-840838450#0" to="712417480#1"/>
    <trip id="motorcycle243" type="motorcycle_motorcycle" depart="52.91" departLane="best" departSpeed="max" from="1010341986#0" to="-705233292"/>
    <trip id="motorcycle244" type="motorcycle_motorcycle" depart="53.13" departLane="best" from="712411951" to="570477020"/>
    <trip id="motorcycle245" type="motorcycle_motorcycle" depart="53.35" departLane="best" from="547667542#0" to="22729176#3"/>
    <trip id="motorcycle246" type="motorcycle_motorcycle" depart="53.57" departLane="best" from="99485069#1" to="705361742#1"/>
    <trip id="motorcycle248" type="motorcycle_motorcycle" depart="54.00" departLane="best" from="39077073#3" to="38343252#1"/>
    <trip id="motorcycle249" type="motorcycle_motorcycle" depart="54.22" departLane="best" from="-86720809#4" to="-762046240#0"/>
    <trip id="motorcycle250" type="motorcycle_motorcycle" depart="54.44" departLane="best" departSpeed="max" from="762325827" to="547665432#1"/>
    <trip id="motorcycle252" type="motorcycle_motorcycle" depart="54.87" departLane="best" from="-18018451#7" to="4174072"/>
    <trip id="motorcycle253" type="motorcycle_motorcycle" depart="55.09" departLane="best" departSpeed="max" from="27663230" to="712411957#1"/>
    <trip id="motorcycle254" type="motorcycle_motorcycle" depart="55.31" departLane="best" departSpeed="max" from="552769056" to="1010341986#2"/>
    <trip id="motorcycle256" type="motorcycle_motorcycle" depart="55.74" departLane="best" departSpeed="max" from="109033611#0" to="700702826"/>
    <trip id="motorcycle257" type="motorcycle_motorcycle" depart="55.96" departLane="best" departSpeed="max" from="-570477020" to="-22729197#0"/>
    <trip id="motorcycle258" type="motorcycle_motorcycle" depart="56.18" departLane="best" from="31661773#2" to="824674208"/>
    <trip id="motorcycle259" type="motorcycle_motorcycle" depart="56.40" departLane="best" from="31091043#1" to="712417481"/>
    <trip id="motorcycle260" type="motorcycle_motorcycle" depart="56.61" departLane="best" from="704565016#0" to="25784325#2"/>
    <trip id="motorcycle261" type="motorcycle_motorcycle" depart="56.83" departLane="best" from="654885084" to="824674208"/>
    <trip id="motorcycle264" type="motorcycle_motorcycle" depart="57.48" departLane="best" from="704556778#0" to="738552206"/>
    <trip id="motorcycle265" type="motorcycle_motorcycle" depart="57.70" departLane="best" from="-22729195#0" to="-628567747"/>
    <trip id="motorcycle266" type="motorcycle_motorcycle" depart="57.92" departLane="best" departSpeed="max" from="-1101598986" to="114695854#1"/>
    <trip id="motorcycle267" type="motorcycle_motorcycle" depart="58.14" departLane="best" from="374114342#1" to="712417488"/>
    <trip id="motorcycle268" type="motorcycle_motorcycle" depart="58.36" departLane="best" departSpeed="max" from="-25784325#2" to="749318776#0"/>
    <trip id="motorcycle269" type="motorcycle_motorcycle" depart="58.57" departLane="best" from="1240681179" to="25794650"/>