<?xml version="1.0" encoding="UTF-8"?>

<!-- generated on 2024-04-02 11:59:04.600180 by osmWebWizard.py v1_19_0+0000-baa66a0f364
<configuration>
    <net-file value="C:\Users\HP_Demo\Sumo\2024-04-02-11-58-34\osm.net.xml.gz"/>
    <output-trip-file value="C:\Users\HP_Demo\Sumo\2024-04-02-11-58-34\osm.truck.trips.xml"/>
    <route-file value="C:\Users\HP_Demo\Sumo\2024-04-02-11-58-34\osm.truck.rou.xml"/>
    <prefix value="truck"/>
    <trip-attributes value="departLane=&quot;best&quot;"/>
    <fringe-start-attributes value="departSpeed=&quot;max&quot;"/>
    <vehicle-class value="truck"/>
    <fringe-factor value="5"/>
    <vclass value="truck"/>
    <via-edge-types value="highway.motorway,highway.motorway_link,highway.trunk_link,highway.primary_link,highway.secondary_link,highway.tertiary_link"/>
    <min-distance value="600.0"/>
    <min-distance.fringe value="10.0"/>
    <remove-loops value="True"/>
    <validate value="True"/>
    <insertion-density value="20.0"/>
</configuration>
-->

<!-- generated on 2024-04-02 11:59:04 by Eclipse SUMO duarouter Version 1.19.0
<configuration xmlns:xsi="http://www.w3.org/2001/XMLSchema-instance" xsi:noNamespaceSchemaLocation="http://sumo.dlr.de/xsd/duarouterConfiguration.xsd">

    <input>
        <net-file value="C:\Users\HP_Demo\Sumo\2024-04-02-11-58-34\osm.net.xml.gz"/>
        <route-files value="C:\Users\HP_Demo\Sumo\2024-04-02-11-58-34\osm.truck.trips.xml"/>
    </input>

    <output>
        <output-file value="C:\Users\HP_Demo\Sumo\2024-04-02-11-58-34\osm.truck.trips.xml.tmp"/>
        <alternatives-output value="NUL"/>
        <write-trips value="true"/>
    </output>

    <processing>
        <remove-loops value="true"/>
    </processing>

    <time>
        <begin value="0.0"/>
        <end value="3600.0"/>
    </time>

    <report>
        <no-warnings value="true"/>
        <ignore-errors value="true"/>
        <no-step-log value="true"/>
    </report>

</configuration>
-->

<routes xmlns:xsi="http://www.w3.org/2001/XMLSchema-instance" xsi:noNamespaceSchemaLocation="http://sumo.dlr.de/xsd/routes_file.xsd">
    <vType id="truck_truck" vClass="truck" lcSublane="2"/>
    <trip id="truck0" type="truck_truck" depart="0.00" departLane="best" from="687888445" to="-14712267"/>
    <trip id="truck1" type="truck_truck" depart="1.44" departLane="best" departSpeed="max" from="135053351#0" to="102653004"/>
    <trip id="truck2" type="truck_truck" depart="2.89" departLane="best" from="703998736#1" to="671307951"/>
    <trip id="truck3" type="truck_truck" depart="4.33" departLane="best" departSpeed="max" from="712417490" to="22797833#3"/>
    <trip id="truck4" type="truck_truck" depart="5.78" departLane="best" departSpeed="max" from="23457174" to="-14712267"/>
    <trip id="truck6" type="truck_truck" depart="8.67" departLane="best" from="17150684#2" to="-758406142"/>
    <trip id="truck7" type="truck_truck" depart="10.11" departLane="best" from="699916380#1" to="39077073#1"/>
    <trip id="truck8" type="truck_truck" depart="11.55" departLane="best" departSpeed="max" from="109033611#0" to="4940449#1"/>
    <trip id="truck9" type="truck_truck" depart="13.00" departLane="best" from="705369239" to="700357456#1"/>
    <trip id="truck10" type="truck_truck" depart="14.44" departLane="best" departSpeed="max" from="86720817#0" to="-18018451#3"/>
    <trip id="truck11" type="truck_truck" depart="15.89" departLane="best" departSpeed="max" from="-33513919#1" to="24531287#5"/>
    <trip id="truck12" type="truck_truck" depart="17.33" departLane="best" from="706750711" to="5018757"/>
    <trip id="truck13" type="truck_truck" depart="18.77" departLane="best" from="22603996#2" to="40260109#1"/>
    <trip id="truck14" type="truck_truck" depart="20.22" departLane="best" from="-706445006#1" to="54030331"/>
    <trip id="truck15" type="truck_truck" depart="21.66" departLane="best" from="-705382985" to="462035259#0"/>
    <trip id="truck16" type="truck_truck" depart="23.11" departLane="best" from="701621703#0" to="-18018451#0"/>
    <trip id="truck17" type="truck_truck" depart="24.55" departLane="best" from="109033611#4" to="132684527#5"/>
    <trip id="truck18" type="truck_truck" depart="26.00" departLane="best" departSpeed="max" from="-25784325#2" to="1075219691#1"/>
    <trip id="truck19" type="truck_truck" depart="27.44" departLane="best" from="681801613#1" to="220840489"/>
    <trip id="truck20" type="truck_truck" depart="28.88" departLane="best" from="22598114#1" to="22927825"/>
    <trip id="truck21" type="truck_truck" depart="30.33" departLane="best" from="132684529#0" to="-758389472#0"/>
    <trip id="truck22" type="truck_truck" depart="31.77" departLane="best" from="98112666" to="52640675"/>
    <trip id="truck23" type="truck_truck" depart="33.22" departLane="best" from="157161355#1" to="22598088#5"/>
    <trip id="truck24" type="truck_truck" depart="34.66" departLane="best" from="97081380#2" to="547696282#2"/>
    <trip id="truck25" type="truck_truck" depart="36.11" departLane="best" from="706467245#1" to="703998729#0"/>
    <trip id="truck27" type="truck_truck" depart="38.99" departLane="best" from="17152532#1" to="1180378195"/>
    <trip id="truck28" type="truck_truck" depart="40.44" departLane="best" from="1076360324#1" to="761304865#1"/>
    <trip id="truck29" type="truck_truck" depart="41.88" departLane="best" departSpeed="max" from="758406142" to="25945011#1"/>
    <trip id="truck30" type="truck_truck" depart="43.33" departLane="best" departSpeed="max" from="9868257#0" to="374114343#1"/>
    <trip id="truck31" type="truck_truck" depart="44.77" departLane="best" departSpeed="max" from="-4940454" to="54145954#1"/>
    <trip id="truck32" type="truck_truck" depart="46.21" departLane="best" from="-706803373#1" to="22882844"/>
    <trip id="truck33" type="truck_truck" depart="47.66" departLane="best" departSpeed="max" from="-22882831" to="22598114#0"/>
    <trip id="truck34" type="truck_truck" depart="49.10" departLane="best" from="-1176164150" to="700616170"/>
    <trip id="truck35" type="truck_truck" depart="50.55" departLane="best" from="700702823" to="381895123#1"/>
    <trip id="truck36" type="truck_truck" depart="51.99" departLane="best" departSpeed="max" from="-4940454" to="24531287#3"/>
    <trip id="truck37" type="truck_truck" depart="53.44" departLane="best" departSpeed="max" from="24531290#0" to="81799763"/>
    <trip id="truck38" type="truck_truck" depart="54.88" departLane="best" from="380341203#1" to="-706445007#1"/>
    <trip id="truck39" type="truck_truck" depart="56.32" departLane="best" departSpeed="max" from="157812294" to="547696282#1"/>
    <trip id="truck40" type="truck_truck" depart="57.77" departLane="best" from="568859131#1" to="-699945508#0"/>
    <trip id="truck41" type="truck_truck" depart="59.21" departLane="best" from="704565016#0" to="38313603"/>
    <trip id="truck42" type="truck_truck" depart="60.66" departLane="best" from="705241293" to="381895122#1"/>
    <trip id="truck43" type="truck_truck" depart="62.10" departLane="best" from="-1075219689" to="17150684#1"/>
    <trip id="truck44" type="truck_truck" depart="63.54" departLane="best" from="707417828#1" to="705361733#1"/>
    <trip id="truck46" type="truck_truck" depart="66.43" departLane="best" from="707417827" to="761311713"/>
    <trip id="truck47" type="truck_truck" depart="67.88" departLane="best" departSpeed="max" from="-27661428#2" to="32946692#0"/>
    <trip id="truck48" type="truck_truck" depart="69.32" departLane="best" from="24531287#4" to="702461325#1"/>
    <trip id="truck49" type="truck_truck" depart="70.77" departLane="best" from="32946572#1" to="40260109#1"/>
    <trip id="truck50" type="truck_truck" depart="72.21" departLane="best" from="132684527#6" to="706467245#1"/>
    <trip id="truck51" type="truck_truck" depart="73.65" departLane="best" departSpeed="max" from="23457174" to="-86720809#1"/>
    <trip id="truck53" type="truck_truck" depart="76.54" departLane="best" from="86720809#6" to="144850880#4"/>
    <trip id="truck54" type="truck_truck" depart="77.99" departLane="best" departSpeed="max" from="9868257#0" to="568859086#0"/>
    <trip id="truck55" type="truck_truck" depart="79.43" departLane="best" departSpeed="max" from="24531288#0" to="374114346#1"/>
    <trip id="truck56" type="truck_truck" depart="80.88" departLane="best" from="562968525#2" to="102653004"/>
    <trip id="truck57" type="truck_truck" depart="82.32" departLane="best" from="-19683137#0" to="4940449#0"/>
    <trip id="truck58" type="truck_truck" depart="83.76" departLane="best" from="1098428006#2" to="-86720809#7"/>
    <trip id="truck59" type="truck_truck" depart="85.21" departLane="best" from="-24531288#1" to="54145954#4"/>
    <trip id="truck60" type="truck_truck" depart="86.65" departLane="best" from="706750725#1" to="-22797818#0"/>
    <trip id="truck61" type="truck_truck" depart="88.10" departLane="best" from="1101598986#0" to="573621956#4"/>
    <trip id="truck62" type="truck_truck" depart="89.54" departLane="best" departSpeed="max" from="108060096#0" to="-562968525#0"/>
    <trip id="truck63" type="truck_truck" depart="90.98" departLane="best" from="824674208#3" to="4484118#1"/>
    <trip id="truck64" type="truck_truck" depart="92.43" departLane="best" from="32945701#0" to="703998735#0"/>
    <trip id="truck65" type="truck_truck" depart="93.87" departLane="best" from="705369243#1" to="-707358771"/>
    <trip id="truck66" type="truck_truck" depart="95.32" departLane="best" from="381895122#1" to="23593401#0"/>
    <trip id="truck67" type="truck_truck" depart="96.76" departLane="best" departSpeed="max" from="23457174" to="31091046#1"/>
    <trip id="truck68" type="truck_truck" depart="98.21" departLane="best" from="951875251" to="-24531288#0"/>
    <trip id="truck69" type="truck_truck" depart="99.65" departLane="best" from="22797818#1" to="-18018451#6"/>
    <trip id="truck70" type="truck_truck" depart="101.09" departLane="best" from="706803377" to="1098428006#4"/>
    <trip id="truck71" type="truck_truck" depart="102.54" departLane="best" departSpeed="max" from="23457174" to="132684525"/>
    <trip id="truck72" type="truck_truck" depart="103.98" departLane="best" departSpeed="max" from="24531288#0" to="706004480"/>
    <trip id="truck73" type="truck_truck" depart="105.43" departLane="best" from="9868257#2" to="705361743#1"/>
    <trip id="truck74" type="truck_truck" depart="106.87" departLane="best" departSpeed="max" from="86722072#0" to="749318776#0-AddedOnRampEdge"/>
    <trip id="truck75" type="truck_truck" depart="108.32" departLane="best" from="706750712" to="705148056#0"/>
    <trip id="truck76" type="truck_truck" depart="109.76" departLane="best" from="951896011" to="-86720809#1"/>
    <trip id="truck78" type="truck_truck" depart="112.65" departLane="best" from="24531290#1" to="22882844"/>
    <trip id="truck79" type="truck_truck" depart="114.09" departLane="best" departSpeed="max" from="86720817#0" to="97081380#3"/>
    <trip id="truck80" type="truck_truck" depart="115.54" departLane="best" from="5018753#1" to="700616170"/>
    <trip id="truck81" type="truck_truck" depart="116.98" departLane="best" departSpeed="max" from="86722072#0" to="48345239"/>
    <trip id="truck82" type="truck_truck" depart="118.42" departLane="best" from="462035259#0" to="701597908"/>
    <trip id="truck83" type="truck_truck" depart="119.87" departLane="best" from="-22797833#1" to="483619006"/>
    <trip id="truck84" type="truck_truck" depart="121.31" departLane="best" departSpeed="max" from="-700616170" to="842905691#1"/>
    <trip id="truck85" type="truck_truck" depart="122.76" departLane="best" departSpeed="max" from="-25784325#2" to="705382987#1"/>
    <trip id="truck86" type="truck_truck" depart="124.20" departLane="best" departSpeed="max" from="562968525#0" to="706445015"/>
    <trip id="truck87" type="truck_truck" depart="125.65" departLane="best" from="1098428007#1" to="-4940451#0"/>
    <trip id="truck88" type="truck_truck" depart="127.09" departLane="best" departSpeed="max" from="712417488#0" to="1098428006#0"/>
    <trip id="truck89" type="truck_truck" depart="128.53" departLane="best" departSpeed="max" from="562968525#0" to="54030371#0"/>
    <trip id="truck90" type="truck_truck" depart="129.98" departLane="best" from="229922382#2" to="483619006"/>
    <trip id="truck91" type="truck_truck" depart="131.42" departLane="best" from="4083183#1" to="757342459"/>
    <trip id="truck92" type="truck_truck" depart="132.87" departLane="best" from="1101598986#1" to="22697402#0"/>
    <trip id="truck93" type="truck_truck" depart="134.31" departLane="best" from="700684167#1" to="-135053352#0"/>
    <trip id="truck94" type="truck_truck" depart="135.76" departLane="best" from="24531288#3" to="25945011#0"/>
    <trip id="truck95" type="truck_truck" depart="137.20" departLane="best" departSpeed="max" from="9868257#0" to="97789312"/>
    <trip id="truck96" type="truck_truck" depart="138.64" departLane="best" from="-24531288#3" to="-86720809#1"/>
    <trip id="truck97" type="truck_truck" depart="140.09" departLane="best" from="132684527#6" to="757342459"/>
    <trip id="truck98" type="truck_truck" depart="141.53" departLane="best" from="708337630" to="706750712"/>
    <trip id="truck99" type="truck_truck" depart="142.98" departLane="best" from="22598114#0" to="700547993#3"/>
    <trip id="truck100" type="truck_truck" depart="144.42" departLane="best" from="568859132#2" to="92357005#1"/>
    <trip id="truck101" type="truck_truck" depart="145.86" departLane="best" from="700357466" to="-758406141#0"/>
    <trip id="truck102" type="truck_truck" depart="147.31" departLane="best" departSpeed="max" from="-4940454" to="40260109#1"/>
    <trip id="truck103" type="truck_truck" depart="148.75" departLane="best" from="703405127" to="824674208#0"/>
    <trip id="truck105" type="truck_truck" depart="151.64" departLane="best" from="1180378196" to="-24531287#0"/>
    <trip id="truck106" type="truck_truck" depart="153.09" departLane="best" departSpeed="max" from="23457174" to="126978647#0"/>
    <trip id="truck107" type="truck_truck" depart="154.53" departLane="best" from="109033611#3" to="703427442#1"/>
    <trip id="truck108" type="truck_truck" depart="155.97" departLane="best" from="681801613#2" to="1150583445#0"/>
    <trip id="truck109" type="truck_truck" depart="157.42" departLane="best" from="703998741#0" to="40260109#1"/>
    <trip id="truck110" type="truck_truck" depart="158.86" departLane="best" departSpeed="max" from="24531287#0" to="-109033611#4"/>
    <trip id="truck111" type="truck_truck" depart="160.31" departLane="best" from="-25784325#1" to="706750720"/>
    <trip id="truck112" type="truck_truck" depart="161.75" departLane="best" departSpeed="max" from="706445007#0" to="483619006"/>
    <trip id="truck113" type="truck_truck" depart="163.19" departLane="best" from="-700547993#3" to="-54145954#2"/>
    <trip id="truck114" type="truck_truck" depart="164.64" departLane="best" from="17150559#1" to="4418431#1"/>
    <trip id="truck115" type="truck_truck" depart="166.08" departLane="best" from="705361735#1" to="706004480"/>
    <trip id="truck116" type="truck_truck" depart="167.53" departLane="best" from="732226018" to="22927825"/>
    <trip id="truck118" type="truck_truck" depart="170.42" departLane="best" from="705241296#1" to="706750721#0"/>
    <trip id="truck119" type="truck_truck" depart="171.86" departLane="best" departSpeed="max" from="22797820#0" to="54030371#1"/>
    <trip id="truck120" type="truck_truck" depart="173.30" departLane="best" departSpeed="max" from="-700616170" to="755263197#0"/>
    <trip id="truck121" type="truck_truck" depart="174.75" departLane="best" departSpeed="max" from="705249101#0" to="-25794650"/>
    <trip id="truck122" type="truck_truck" depart="176.19" departLane="best" departSpeed="max" from="109033611#0" to="705106530#1"/>
    <trip id="truck123" type="truck_truck" depart="177.64" departLane="best" from="25945011#1" to="144850878"/>
    <trip id="truck124" type="truck_truck" depart="179.08" departLane="best" from="705361733#1" to="1067286268"/>
    <trip id="truck125" type="truck_truck" depart="180.53" departLane="best" from="17150115#0" to="-711293109"/>
    <trip id="truck126" type="truck_truck" depart="181.97" departLane="best" departSpeed="max" from="86722072#0" to="132684525"/>
    <trip id="truck127" type="truck_truck" depart="183.41" departLane="best" from="691378179" to="22697402#4"/>
    <trip id="truck128" type="truck_truck" depart="184.86" departLane="best" from="92357002" to="381895123#1"/>
    <trip id="truck129" type="truck_truck" depart="186.30" departLane="best" from="86713541#1" to="-4083253#0"/>
    <trip id="truck130" type="truck_truck" depart="187.75" departLane="best" departSpeed="max" from="86722072#0" to="-706445007#1"/>
    <trip id="truck131" type="truck_truck" depart="189.19" departLane="best" departSpeed="max" from="86722056" to="-1176164150"/>
    <trip id="truck132" type="truck_truck" depart="190.63" departLane="best" departSpeed="max" from="-4940454" to="-24531287#2"/>
    <trip id="truck133" type="truck_truck" depart="192.08" departLane="best" from="703998730#1" to="157161350#0"/>
    <trip id="truck134" type="truck_truck" depart="193.52" departLane="best" from="568859086#0" to="374114343#1"/>
    <trip id="truck135" type="truck_truck" depart="194.97" departLane="best" departSpeed="max" from="-22604033#0" to="462035252#1"/>
    <trip id="truck136" type="truck_truck" depart="196.41" departLane="best" from="126978646" to="700547993#3"/>
    <trip id="truck137" type="truck_truck" depart="197.86" departLane="best" from="-1075219691#1" to="749318776#0"/>
    <trip id="truck138" type="truck_truck" depart="199.30" departLane="best" from="-4418472" to="700616170"/>
    <trip id="truck139" type="truck_truck" depart="200.74" departLane="best" from="22598088#2" to="-22797818#0"/>
    <trip id="truck140" type="truck_truck" depart="202.19" departLane="best" from="700357466" to="179384091#1"/>
    <trip id="truck141" type="truck_truck" depart="203.63" departLane="best" from="17152412#1" to="705369251#1"/>
    <trip id="truck142" type="truck_truck" depart="205.08" departLane="best" from="703427439#1" to="-135053352#1"/>
    <trip id="truck143" type="truck_truck" depart="206.52" departLane="best" from="17150559#2" to="22797833#1"/>
    <trip id="truck144" type="truck_truck" depart="207.97" departLane="best" from="22797818#1" to="380341204"/>
    <trip id="truck145" type="truck_truck" depart="209.41" departLane="best" from="749318776#0" to="53054666"/>
    <trip id="truck146" type="truck_truck" depart="210.85" departLane="best" departSpeed="max" from="157812294" to="40260109#0"/>
    <trip id="truck147" type="truck_truck" depart="212.30" departLane="best" from="-1075219689" to="132684527#2"/>
    <trip id="truck148" type="truck_truck" depart="213.74" departLane="best" departSpeed="max" from="24531287#0" to="700702822"/>
    <trip id="truck149" type="truck_truck" depart="215.19" departLane="best" from="-700098627" to="27661428#1"/>
    <trip id="truck150" type="truck_truck" depart="216.63" departLane="best" from="664749269" to="-18018451#2"/>
    <trip id="truck151" type="truck_truck" depart="218.07" departLane="best" from="705414362#1" to="701621703#1"/>
    <trip id="truck152" type="truck_truck" depart="219.52" departLane="best" from="700695449#0" to="102653004"/>
    <trip id="truck153" type="truck_truck" depart="220.96" departLane="best" from="86720809#2" to="-109033611#1"/>
    <trip id="truck154" type="truck_truck" depart="222.41" departLane="best" from="1180378194" to="32090457"/>
    <trip id="truck155" type="truck_truck" depart="223.85" departLane="best" from="706750714" to="-22797818#0"/>
    <trip id="truck156" type="truck_truck" depart="225.30" departLane="best" from="22797833#3" to="54145954#3"/>
    <trip id="truck157" type="truck_truck" depart="226.74" departLane="best" from="824674208#4" to="700098627"/>
    <trip id="truck159" type="truck_truck" depart="229.63" departLane="best" from="700357456#1" to="-109033611#0"/>
    <trip id="truck160" type="truck_truck" depart="231.07" departLane="best" from="704341118#1" to="703427440#1"/>
    <trip id="truck161" type="truck_truck" depart="232.52" departLane="best" departSpeed="max" from="-4940454" to="22882844"/>
    <trip id="truck162" type="truck_truck" depart="233.96" departLane="best" from="-706803372" to="824674208#3"/>
    <trip id="truck164" type="truck_truck" depart="236.85" departLane="best" departSpeed="max" from="562968525#0" to="761311713"/>
    <trip id="truck165" type="truck_truck" depart="238.29" departLane="best" from="712417489" to="52871176#1"/>
    <trip id="truck167" type="truck_truck" depart="241.18" departLane="best" departSpeed="max" from="706445007#0" to="40260109#0"/>
    <trip id="truck168" type="truck_truck" depart="242.63" departLane="best" from="71490828" to="701378346#1"/>
    <trip id="truck169" type="truck_truck" depart="244.07" departLane="best" from="32946572#0" to="1140665192"/>
    <trip id="truck170" type="truck_truck" depart="245.51" departLane="best" from="1180378196" to="547696282#0"/>
    <trip id="truck171" type="truck_truck" depart="246.96" departLane="best" from="704887558#1" to="380341200#1"/>
    <trip id="truck172" type="truck_truck" depart="248.40" departLane="best" departSpeed="max" from="-25784325#2" to="132684527#1"/>
    <trip id="truck173" type="truck_truck" depart="249.85" departLane="best" departSpeed="max" from="135053351#0" to="170832365#1"/>
    <trip id="truck174" type="truck_truck" depart="251.29" departLane="best" from="1098428006#3" to="699957936#1"/>
    <trip id="truck175" type="truck_truck" depart="252.74" departLane="best" from="701621703#1" to="-19827404#0"/>
    <trip id="truck176" type="truck_truck" depart="254.18" departLane="best" departSpeed="max" from="22797820#0" to="38319207"/>
    <trip id="truck177" type="truck_truck" depart="255.62" departLane="best" from="22882804#1" to="824674208#3"/>
    <trip id="truck178" type="truck_truck" depart="257.07" departLane="best" from="229922382#3" to="707358773#0"/>
    <trip id="truck179" type="truck_truck" depart="258.51" departLane="best" from="547662355#1" to="700090227"/>
    <trip id="truck180" type="truck_truck" depart="259.96" departLane="best" from="706750722#1" to="703401991#1"/>
    <trip id="truck181" type="truck_truck" depart="261.40" departLane="best" from="22604002#1" to="-109033611#0"/>
    <trip id="truck182" type="truck_truck" depart="262.84" departLane="best" from="707113087#2" to="701644611"/>
    <trip id="truck183" type="truck_truck" depart="264.29" departLane="best" from="706750721#0" to="81799763"/>
    <trip id="truck185" type="truck_truck" depart="267.18" departLane="best" departSpeed="max" from="109033611#0" to="-86720809#7"/>
    <trip id="truck186" type="truck_truck" depart="268.62" departLane="best" from="24531287#3" to="-14712267"/>
    <trip id="truck187" type="truck_truck" depart="270.07" departLane="best" departSpeed="max" from="22797820#0" to="703430058"/>
    <trip id="truck188" type="truck_truck" depart="271.51" departLane="best" departSpeed="max" from="28573506" to="-54145954#3"/>
    <trip id="truck189" type="truck_truck" depart="272.95" departLane="best" from="573621956#1" to="-14712267"/>
    <trip id="truck192" type="truck_truck" depart="277.29" departLane="best" from="22648528#0" to="22598088#5"/>
    <trip id="truck193" type="truck_truck" depart="278.73" departLane="best" from="1076360324#1" to="17151944#0"/>
    <trip id="truck194" type="truck_truck" depart="280.18" departLane="best" from="704356343#0" to="705361733#1"/>
    <trip id="truck195" type="truck_truck" depart="281.62" departLane="best" from="132684531" to="-22797820#1"/>
    <trip id="truck196" type="truck_truck" depart="283.06" departLane="best" from="9868257#2" to="19683534#0"/>
    <trip id="truck197" type="truck_truck" depart="284.51" departLane="best" from="699916380#1" to="703998734#1"/>
    <trip id="truck198" type="truck_truck" depart="285.95" departLane="best" from="699945508#1" to="701644612"/>
    <trip id="truck199" type="truck_truck" depart="287.40" departLane="best" from="86720809#2" to="-758406142"/>
    <trip id="truck200" type="truck_truck" depart="288.84" departLane="best" from="-14712201" to="699525090#6"/>
    <trip id="truck201" type="truck_truck" depart="290.28" departLane="best" departSpeed="max" from="-655805447" to="573621956#6"/>
    <trip id="truck202" type="truck_truck" depart="291.73" departLane="best" from="52871176#2" to="-86720809#4"/>
    <trip id="truck203" type="truck_truck" depart="293.17" departLane="best" from="701381454#0" to="703405127"/>
    <trip id="truck204" type="truck_truck" depart="294.62" departLane="best" from="706803377" to="52640675"/>
    <trip id="truck205" type="truck_truck" depart="296.06" departLane="best" departSpeed="max" from="704338387" to="381895122#2"/>
    <trip id="truck207" type="truck_truck" depart="298.95" departLane="best" departSpeed="max" from="86720817#0" to="22697402#1"/>
    <trip id="truck208" type="truck_truck" depart="300.39" departLane="best" from="703401991#1" to="-22797818#2"/>
    <trip id="truck209" type="truck_truck" depart="301.84" departLane="best" from="700877938" to="54145954#1"/>
    <trip id="truck210" type="truck_truck" depart="303.28" departLane="best" from="-4940449#0" to="703430056#1"/>
    <trip id="truck211" type="truck_truck" depart="304.73" departLane="best" from="706750719#0" to="5018753#1"/>
    <trip id="truck212" type="truck_truck" depart="306.17" departLane="best" from="562968525#2" to="92356998"/>
    <trip id="truck214" type="truck_truck" depart="309.06" departLane="best" from="706750714" to="705241295"/>
    <trip id="truck215" type="truck_truck" depart="310.50" departLane="best" from="701644607#1" to="24531287#3"/>
    <trip id="truck216" type="truck_truck" depart="311.95" departLane="best" from="135053348" to="704887557#1"/>
    <trip id="truck217" type="truck_truck" depart="313.39" departLane="best" from="4418431#1" to="32946572#0"/>
    <trip id="truck218" type="truck_truck" depart="314.84" departLane="best" from="24531287#3" to="700702822"/>
    <trip id="truck219" type="truck_truck" depart="316.28" departLane="best" from="132684530#2" to="705382987#1"/>
    <trip id="truck220" type="truck_truck" depart="317.72" departLane="best" departSpeed="max" from="706445007#0" to="22797833#2"/>
    <trip id="truck221" type="truck_truck" depart="319.17" departLane="best" from="711293093" to="109033611#5"/>
    <trip id="truck222" type="truck_truck" depart="320.61" departLane="best" departSpeed="max" from="28573506" to="52640675"/>
    <trip id="truck223" type="truck_truck" depart="322.06" departLane="best" from="22603996#2" to="-14712267"/>
    <trip id="truck224" type="truck_truck" depart="323.50" departLane="best" from="706750719#0" to="-706445007#1"/>
    <trip id="truck225" type="truck_truck" depart="324.95" departLane="best" from="1076411947#1" to="704356346#0"/>
    <trip id="truck226" type="truck_truck" depart="326.39" departLane="best" departSpeed="max" from="-109033611#5" to="761311713"/>
    <trip id="truck227" type="truck_truck" depart="327.83" departLane="best" departSpeed="max" from="-27661428#2" to="700616170"/>
    <trip id="truck229" type="truck_truck" depart="330.72" departLane="best" from="700877938" to="-562968525#4"/>
    <trip id="truck231" type="truck_truck" depart="333.61" departLane="best" from="700877940#0" to="144850878"/>
    <trip id="truck232" type="truck_truck" depart="335.06" departLane="best" departSpeed="max" from="547662355#0" to="31661773#1"/>
    <trip id="truck233" type="truck_truck" depart="336.50" departLane="best" from="4089442#1" to="22882844"/>
    <trip id="truck234" type="truck_truck" depart="337.94" departLane="best" departSpeed="max" from="704338387" to="179384091#1"/>
    <trip id="truck235" type="truck_truck" depart="339.39" departLane="best" from="701597908" to="1203401388"/>
    <trip id="truck236" type="truck_truck" depart="340.83" departLane="best" from="1213006518" to="4940451#1"/>
    <trip id="truck237" type="truck_truck" depart="342.28" departLane="best" from="824674208#2" to="-4940449#1"/>
    <trip id="truck238" type="truck_truck" depart="343.72" departLane="best" departSpeed="max" from="4263606#0" to="703399122#0"/>
    <trip id="truck239" type="truck_truck" depart="345.16" departLane="best" from="-755263197#0" to="-86720809#3"/>
    <trip id="truck240" type="truck_truck" depart="346.61" departLane="best" from="368213668#0" to="700695449#0"/>
    <trip id="truck241" type="truck_truck" depart="348.05" departLane="best" from="135054234#0" to="-24531288#0"/>
    <trip id="truck242" type="truck_truck" depart="349.50" departLane="best" from="824674208#3" to="1067286269"/>
    <trip id="truck243" type="truck_truck" depart="350.94" departLane="best" departSpeed="max" from="4263606#0" to="126978645#1"/>
    <trip id="truck245" type="truck_truck" depart="353.83" departLane="best" from="701378346#1" to="-54145954#1"/>
    <trip id="truck246" type="truck_truck" depart="355.27" departLane="best" from="707121974#1" to="33513919#1"/>
    <trip id="truck247" type="truck_truck" depart="356.72" departLane="best" from="707358760" to="4484118#2"/>
    <trip id="truck248" type="truck_truck" depart="358.16" departLane="best" from="31661773#1" to="24531288#3"/>
    <trip id="truck249" type="truck_truck" depart="359.61" departLane="best" from="711293094" to="-18018451#6"/>
    <trip id="truck250" type="truck_truck" depart="361.05" departLane="best" from="86714582#0" to="32090457"/>
    <trip id="truck251" type="truck_truck" depart="362.49" departLane="best" from="705461602" to="22697402#5"/>
    <trip id="truck252" type="truck_truck" depart="363.94" departLane="best" from="-25784325#0" to="54145954#3"/>
    <trip id="truck253" type="truck_truck" depart="365.38" departLane="best" from="-22797818#2" to="699525090#1"/>