<?xml version="1.0" encoding="UTF-8"?>

<!-- generated on 2024-04-02 11:58:48.676289 by osmWebWizard.py v1_19_0+0000-baa66a0f364
<configuration>
    <net-file value="C:\Users\HP_Demo\Sumo\2024-04-02-11-58-34\osm.net.xml.gz"/>
    <output-trip-file value="C:\Users\HP_Demo\Sumo\2024-04-02-11-58-34\osm.bus.trips.xml"/>
    <route-file value="C:\Users\HP_Demo\Sumo\2024-04-02-11-58-34\osm.bus.rou.xml"/>
    <prefix value="bus"/>
    <trip-attributes value="departLane=&quot;best&quot;"/>
    <fringe-start-attributes value="departSpeed=&quot;max&quot;"/>
    <vehicle-class value="bus"/>
    <fringe-factor value="5"/>
    <vclass value="bus"/>
    <via-edge-types value="highway.motorway,highway.motorway_link,highway.trunk_link,highway.primary_link,highway.secondary_link,highway.tertiary_link"/>
    <min-distance value="600.0"/>
    <min-distance.fringe value="10.0"/>
    <remove-loops value="True"/>
    <validate value="True"/>
    <insertion-density value="30.0"/>
</configuration>
-->

<!-- generated on 2024-04-02 11:58:48 by Eclipse SUMO duarouter Version 1.19.0
<configuration xmlns:xsi="http://www.w3.org/2001/XMLSchema-instance" xsi:noNamespaceSchemaLocation="http://sumo.dlr.de/xsd/duarouterConfiguration.xsd">

    <input>
        <net-file value="C:\Users\HP_Demo\Sumo\2024-04-02-11-58-34\osm.net.xml.gz"/>
        <route-files value="C:\Users\HP_Demo\Sumo\2024-04-02-11-58-34\osm.bus.trips.xml"/>
    </input>

    <output>
        <output-file value="C:\Users\HP_Demo\Sumo\2024-04-02-11-58-34\osm.bus.trips.xml.tmp"/>
        <alternatives-output value="NUL"/>
        <write-trips value="true"/>
    </output>

    <processing>
        <remove-loops value="true"/>
    </processing>

    <time>
        <begin value="0.0"/>
        <end value="3600.0"/>
    </time>

    <report>
        <no-warnings value="true"/>
        <ignore-errors value="true"/>
        <no-step-log value="true"/>
    </report>

</configuration>
-->

<routes xmlns:xsi="http://www.w3.org/2001/XMLSchema-instance" xsi:noNamespaceSchemaLocation="http://sumo.dlr.de/xsd/routes_file.xsd">
    <vType id="bus_bus" vClass="bus" lcSublane="2"/>
    <trip id="bus0" type="bus_bus" depart="0.00" departLane="best" from="691378178" to="-109033611#1"/>
    <trip id="bus2" type="bus_bus" depart="1.94" departLane="best" from="703998736#1" to="671307951"/>
    <trip id="bus4" type="bus_bus" depart="3.88" departLane="best" departSpeed="max" from="23457174" to="-14712267"/>
    <trip id="bus5" type="bus_bus" depart="4.85" departLane="best" departSpeed="max" from="108060096#0" to="374114343#1"/>
    <trip id="bus6" type="bus_bus" depart="5.83" departLane="best" from="17150684#2" to="-758406141#1"/>
    <trip id="bus7" type="bus_bus" depart="6.80" departLane="best" from="699916380#1" to="39077073#3"/>
    <trip id="bus8" type="bus_bus" depart="7.77" departLane="best" from="705369245" to="700357456#1"/>
    <trip id="bus9" type="bus_bus" depart="8.74" departLane="best" from="-19683137#1" to="-699945508#0"/>
    <trip id="bus10" type="bus_bus" depart="9.71" departLane="best" departSpeed="max" from="86720817#0" to="-18018451#3"/>
    <trip id="bus12" type="bus_bus" depart="11.65" departLane="best" from="706750714" to="-705419063#0"/>
    <trip id="bus14" type="bus_bus" depart="13.59" departLane="best" departSpeed="max" from="706445007#0" to="54030371#0"/>
    <trip id="bus15" type="bus_bus" depart="14.56" departLane="best" from="-706803379" to="48345239"/>
    <trip id="bus16" type="bus_bus" depart="15.53" departLane="best" from="701612812#0" to="-18018451#0"/>
    <trip id="bus17" type="bus_bus" depart="16.50" departLane="best" from="109033611#4" to="132684527#5"/>
    <trip id="bus18" type="bus_bus" depart="17.48" departLane="best" departSpeed="max" from="-25784325#2" to="1075219689"/>
    <trip id="bus20" type="bus_bus" depart="19.42" departLane="best" from="681801613#2" to="220840489"/>
    <trip id="bus21" type="bus_bus" depart="20.39" departLane="best" from="22598132#1" to="824674208#5"/>
    <trip id="bus22" type="bus_bus" depart="21.36" departLane="best" from="132684529#0" to="-758389473#0"/>
    <trip id="bus23" type="bus_bus" depart="22.33" departLane="best" from="98112666" to="52640675"/>
    <trip id="bus24" type="bus_bus" depart="23.30" departLane="best" from="97081380#2" to="547696282#3"/>
    <trip id="bus25" type="bus_bus" depart="24.27" departLane="best" from="706467247#0" to="703436757#1"/>
    <trip id="bus27" type="bus_bus" depart="26.21" departLane="best" from="17152532#1" to="1180378195"/>
    <trip id="bus28" type="bus_bus" depart="27.18" departLane="best" from="-1075219691#1" to="761304865#2"/>
    <trip id="bus29" type="bus_bus" depart="28.15" departLane="best" from="707417827" to="157161350#1"/>
    <trip id="bus30" type="bus_bus" depart="29.13" departLane="best" departSpeed="max" from="758406142" to="27661428#1"/>
    <trip id="bus31" type="bus_bus" depart="30.10" departLane="best" departSpeed="max" from="9868257#0" to="374114343#1"/>
    <trip id="bus32" type="bus_bus" depart="31.07" departLane="best" departSpeed="max" from="-4940454" to="54145954#2"/>
    <trip id="bus33" type="bus_bus" depart="32.04" departLane="best" from="705354691#2" to="22882844"/>
    <trip id="bus34" type="bus_bus" depart="33.01" departLane="best" departSpeed="max" from="-22882831" to="22598124#3"/>
    <trip id="bus35" type="bus_bus" depart="33.98" departLane="best" from="86722072#1" to="706054788#1"/>
    <trip id="bus36" type="bus_bus" depart="34.95" departLane="best" from="-1101598986#0" to="700616170"/>
    <trip id="bus37" type="bus_bus" depart="35.92" departLane="best" from="700702824" to="38313603"/>
    <trip id="bus38" type="bus_bus" depart="36.89" departLane="best" from="132684529#0" to="53054666"/>
    <trip id="bus39" type="bus_bus" depart="37.86" departLane="best" departSpeed="max" from="-4940454" to="-24531288#1"/>
    <trip id="bus40" type="bus_bus" depart="38.83" departLane="best" from="-25784325#1" to="824674208#0"/>
    <trip id="bus42" type="bus_bus" depart="40.78" departLane="best" from="380341208#0" to="706445006#0"/>
    <trip id="bus43" type="bus_bus" depart="41.75" departLane="best" departSpeed="max" from="157812294" to="547696282#2"/>
    <trip id="bus44" type="bus_bus" depart="42.72" departLane="best" from="568859132#0" to="699525090#4"/>
    <trip id="bus45" type="bus_bus" depart="43.69" departLane="best" from="704565015#1" to="38313603"/>
    <trip id="bus47" type="bus_bus" depart="45.63" departLane="best" from="-1075219689" to="1098428007#2"/>
    <trip id="bus48" type="bus_bus" depart="46.60" departLane="best" from="708337630" to="705361733#1"/>
    <trip id="bus50" type="bus_bus" depart="48.54" departLane="best" from="814837390" to="761311713"/>
    <trip id="bus51" type="bus_bus" depart="49.51" departLane="best" from="24531287#4" to="702461325#1"/>
    <trip id="bus52" type="bus_bus" depart="50.48" departLane="best" from="32946692#0" to="40260109#1"/>
    <trip id="bus53" type="bus_bus" depart="51.46" departLane="best" from="704902690#1" to="706467246"/>
    <trip id="bus54" type="bus_bus" depart="52.43" departLane="best" from="24530871" to="842905691#1"/>
    <trip id="bus55" type="bus_bus" depart="53.40" departLane="best" from="462035259#0" to="700702826"/>
    <trip id="bus56" type="bus_bus" depart="54.37" departLane="best" from="86720809#6" to="144850880#4"/>
    <trip id="bus57" type="bus_bus" depart="55.34" departLane="best" departSpeed="max" from="9868257#0" to="568859086#1"/>
    <trip id="bus58" type="bus_bus" depart="56.31" departLane="best" departSpeed="max" from="24531288#0" to="374114349"/>
    <trip id="bus59" type="bus_bus" depart="57.28" departLane="best" from="54145954#5" to="102653004"/>
    <trip id="bus60" type="bus_bus" depart="58.25" departLane="best" from="184842504" to="4940449#1"/>
    <trip id="bus61" type="bus_bus" depart="59.22" departLane="best" from="1098428006#2" to="-86720809#7"/>
    <trip id="bus62" type="bus_bus" depart="60.19" departLane="best" from="24531287#5" to="54145954#5"/>
    <trip id="bus63" type="bus_bus" depart="61.16" departLane="best" from="1098428006#0" to="707417827"/>
    <trip id="bus65" type="bus_bus" depart="63.11" departLane="best" from="1076616353" to="-54145954#5"/>
    <trip id="bus66" type="bus_bus" depart="64.08" departLane="best" from="824674208#4" to="4484118#2"/>
    <trip id="bus67" type="bus_bus" depart="65.05" departLane="best" from="32946572#1" to="703998734#3"/>
    <trip id="bus68" type="bus_bus" depart="66.02" departLane="best" from="705369250" to="-707358771"/>
    <trip id="bus69" type="bus_bus" depart="66.99" departLane="best" from="24530871" to="31091046#2"/>
    <trip id="bus71" type="bus_bus" depart="68.93" departLane="best" departSpeed="max" from="22797820#0" to="-18018451#5"/>
    <trip id="bus72" type="bus_bus" depart="69.90" departLane="best" from="706803379" to="1098428006#4"/>
    <trip id="bus73" type="bus_bus" depart="70.87" departLane="best" from="758406141#1" to="25784325#2"/>
    <trip id="bus75" type="bus_bus" depart="72.81" departLane="best" from="24531289#0" to="706054788#1"/>
    <trip id="bus76" type="bus_bus" depart="73.79" departLane="best" from="9868257#2" to="705363305"/>
    <trip id="bus77" type="bus_bus" depart="74.76" departLane="best" departSpeed="max" from="86722072#0" to="750019357#0"/>
    <trip id="bus80" type="bus_bus" depart="77.67" departLane="best" departSpeed="max" from="-22604033#0" to="92357001"/>
    <trip id="bus81" type="bus_bus" depart="78.64" departLane="best" from="25794650" to="22882844"/>
    <trip id="bus82" type="bus_bus" depart="79.61" departLane="best" departSpeed="max" from="86720817#0" to="97081380#3"/>
    <trip id="bus83" type="bus_bus" depart="80.58" departLane="best" from="5018756#1" to="700616170"/>
    <trip id="bus84" type="bus_bus" depart="81.55" departLane="best" departSpeed="max" from="86722072#0" to="483619006"/>
    <trip id="bus85" type="bus_bus" depart="82.52" departLane="best" from="1076616353" to="701516271#0"/>
    <trip id="bus86" type="bus_bus" depart="83.49" departLane="best" from="22797833#0" to="483747732"/>
    <trip id="bus87" type="bus_bus" depart="84.46" departLane="best" from="380341208#2" to="705414362#1"/>
    <trip id="bus88" type="bus_bus" depart="85.44" departLane="best" departSpeed="max" from="-700616170" to="86713541#1"/>
    <trip id="bus89" type="bus_bus" depart="86.41" departLane="best" departSpeed="max" from="-25784325#2" to="705382988"/>
    <trip id="bus90" type="bus_bus" depart="87.38" departLane="best" departSpeed="max" from="562968525#0" to="706445015"/>
    <trip id="bus91" type="bus_bus" depart="88.35" departLane="best" from="1098428007#1" to="-4940449#0"/>
    <trip id="bus92" type="bus_bus" depart="89.32" departLane="best" departSpeed="max" from="712417490" to="1098428006#0"/>
    <trip id="bus93" type="bus_bus" depart="90.29" departLane="best" departSpeed="max" from="562968525#0" to="54030371#1"/>
    <trip id="bus94" type="bus_bus" depart="91.26" departLane="best" departSpeed="max" from="23457174" to="483619006"/>
    <trip id="bus95" type="bus_bus" depart="92.23" departLane="best" from="1101598986#0" to="22697402#4"/>
    <trip id="bus96" type="bus_bus" depart="93.20" departLane="best" from="700684167#1" to="-135053352#0"/>
    <trip id="bus97" type="bus_bus" depart="94.17" departLane="best" from="-24531288#2" to="-27661373#0"/>
    <trip id="bus98" type="bus_bus" depart="95.14" departLane="best" departSpeed="max" from="9868257#0" to="97789312"/>
    <trip id="bus99" type="bus_bus" depart="96.11" departLane="best" from="704902690#1" to="757342459"/>
    <trip id="bus100" type="bus_bus" depart="97.09" departLane="best" from="711293094" to="706750719#0"/>
    <trip id="bus101" type="bus_bus" depart="98.06" departLane="best" from="22598124#3" to="-700547993#1"/>
    <trip id="bus102" type="bus_bus" depart="99.03" departLane="best" from="571044351#0" to="92357005#1"/>
    <trip id="bus103" type="bus_bus" depart="100.00" departLane="best" from="-705419063#1" to="-135053352#0"/>
    <trip id="bus104" type="bus_bus" depart="100.97" departLane="best" from="700357466" to="-758406141#1"/>
    <trip id="bus106" type="bus_bus" depart="102.91" departLane="best" from="-4940451#2" to="4083183#1"/>
    <trip id="bus107" type="bus_bus" depart="103.88" departLane="best" departSpeed="max" from="135053351#0" to="52640674"/>
    <trip id="bus108" type="bus_bus" depart="104.85" departLane="best" from="703405127" to="-758406142"/>
    <trip id="bus109" type="bus_bus" depart="105.82" departLane="best" from="676674453" to="1150583449#1"/>
    <trip id="bus110" type="bus_bus" depart="106.79" departLane="best" from="374108295#2" to="707417827"/>
    <trip id="bus112" type="bus_bus" depart="108.74" departLane="best" from="24530871" to="126978647#0"/>
    <trip id="bus113" type="bus_bus" depart="109.71" departLane="best" from="109033611#3" to="703427440#1"/>
    <trip id="bus115" type="bus_bus" depart="111.65" departLane="best" departSpeed="max" from="24531287#0" to="-109033611#4"/>
    <trip id="bus116" type="bus_bus" depart="112.62" departLane="best" from="-25784325#0" to="706750721#1"/>
    <trip id="bus117" type="bus_bus" depart="113.59" departLane="best" from="755240057" to="40260109#0"/>
    <trip id="bus118" type="bus_bus" depart="114.56" departLane="best" from="-700547993#1" to="-54145954#1"/>
    <trip id="bus119" type="bus_bus" depart="115.53" departLane="best" from="17150559#1" to="54030331"/>
    <trip id="bus120" type="bus_bus" depart="116.50" departLane="best" from="747975721#0" to="824674208#5"/>
    <trip id="bus122" type="bus_bus" depart="118.44" departLane="best" from="705241296#2" to="706750722#0"/>
    <trip id="bus123" type="bus_bus" depart="119.42" departLane="best" from="22797820#2" to="54145953"/>
    <trip id="bus124" type="bus_bus" depart="120.39" departLane="best" from="18018451#7" to="757342459"/>
    <trip id="bus125" type="bus_bus" depart="121.36" departLane="best" from="-705369238" to="706445015"/>
    <trip id="bus126" type="bus_bus" depart="122.33" departLane="best" departSpeed="max" from="109033611#0" to="92356998"/>
    <trip id="bus127" type="bus_bus" depart="123.30" departLane="best" departSpeed="max" from="28573506" to="144850878"/>
    <trip id="bus128" type="bus_bus" depart="124.27" departLane="best" from="705361735#1" to="102653004"/>
    <trip id="bus129" type="bus_bus" depart="125.24" departLane="best" from="17150115#0" to="-711293109"/>
    <trip id="bus130" type="bus_bus" depart="126.21" departLane="best" from="18018451#3" to="706445015"/>
    <trip id="bus133" type="bus_bus" depart="129.12" departLane="best" from="92357002" to="38313603"/>
    <trip id="bus134" type="bus_bus" depart="130.09" departLane="best" departSpeed="max" from="86722072#0" to="706445006#0"/>
    <trip id="bus135" type="bus_bus" depart="131.07" departLane="best" departSpeed="max" from="86722056" to="1151709493"/>
    <trip id="bus136" type="bus_bus" depart="132.04" departLane="best" departSpeed="max" from="-4940454" to="-24531288#1"/>
    <trip id="bus137" type="bus_bus" depart="133.01" departLane="best" from="703998730#0" to="157161350#0"/>
    <trip id="bus138" type="bus_bus" depart="133.98" departLane="best" from="568859086#1" to="374114345#1"/>
    <trip id="bus139" type="bus_bus" depart="134.95" departLane="best" from="22697402#0" to="462035259#0"/>
    <trip id="bus140" type="bus_bus" depart="135.92" departLane="best" from="126978646" to="700547993#3"/>
    <trip id="bus141" type="bus_bus" depart="136.89" departLane="best" from="-1075219691#1" to="749318776#0-AddedOnRampEdge"/>
    <trip id="bus142" type="bus_bus" depart="137.86" departLane="best" from="22598088#4" to="22788847#0"/>
    <trip id="bus143" type="bus_bus" depart="138.83" departLane="best" from="700547993#1" to="17152532#1"/>
    <trip id="bus144" type="bus_bus" depart="139.80" departLane="best" from="17152412#1" to="705369253#0"/>
    <trip id="bus145" type="bus_bus" depart="140.77" departLane="best" from="703427439#1" to="-135053352#1"/>
    <trip id="bus146" type="bus_bus" depart="141.75" departLane="best" from="17150559#2" to="22882831"/>
    <trip id="bus147" type="bus_bus" depart="142.72" departLane="best" departSpeed="max" from="22797820#0" to="380341204"/>
    <trip id="bus148" type="bus_bus" depart="143.69" departLane="best" from="571060430#1" to="22882844"/>
    <trip id="bus149" type="bus_bus" depart="144.66" departLane="best" from="750019357#0" to="53054666-AddedOffRampEdge"/>
    <trip id="bus150" type="bus_bus" depart="145.63" departLane="best" departSpeed="max" from="157812294" to="40260109#1"/>
    <trip id="bus151" type="bus_bus" depart="146.60" departLane="best" from="-1075219689" to="132684527#3"/>
    <trip id="bus152" type="bus_bus" depart="147.57" departLane="best" from="24531287#1" to="483619006"/>
    <trip id="bus153" type="bus_bus" depart="148.54" departLane="best" from="700325987" to="31091046#2"/>
    <trip id="bus154" type="bus_bus" depart="149.51" departLane="best" from="32946572#1" to="707358760-AddedOffRampEdge"/>
    <trip id="bus155" type="bus_bus" depart="150.48" departLane="best" from="671307951" to="18018451#1"/>
    <trip id="bus156" type="bus_bus" depart="151.45" departLane="best" from="705461599" to="701621703#0"/>
    <trip id="bus157" type="bus_bus" depart="152.42" departLane="best" from="700695449#0" to="102653004"/>
    <trip id="bus158" type="bus_bus" depart="153.40" departLane="best" from="86720809#2" to="-109033611#1"/>
    <trip id="bus160" type="bus_bus" depart="155.34" departLane="best" from="229922382#0" to="54145954#4"/>
    <trip id="bus161" type="bus_bus" depart="156.31" departLane="best" from="824674208#3" to="700098627"/>
    <trip id="bus162" type="bus_bus" depart="157.28" departLane="best" from="374114349" to="109033611#5"/>
    <trip id="bus163" type="bus_bus" depart="158.25" departLane="best" from="700357456#1" to="-109033611#0"/>
    <trip id="bus164" type="bus_bus" depart="159.22" departLane="best" from="704341118#1" to="703427439#1"/>
    <trip id="bus165" type="bus_bus" depart="160.19" departLane="best" from="706464109" to="824674208#4"/>
    <trip id="bus166" type="bus_bus" depart="161.16" departLane="best" from="25945011#0" to="704471784"/>
    <trip id="bus167" type="bus_bus" depart="162.13" departLane="best" departSpeed="max" from="562968525#0" to="761311713"/>
    <trip id="bus168" type="bus_bus" depart="163.10" departLane="best" departSpeed="max" from="712417490" to="52871176#2"/>
    <trip id="bus169" type="bus_bus" depart="164.07" departLane="best" from="703422294" to="374114343#0"/>
    <trip id="bus170" type="bus_bus" depart="165.05" departLane="best" departSpeed="max" from="706445007#0" to="40260109#1"/>
    <trip id="bus171" type="bus_bus" depart="166.02" departLane="best" from="71490832" to="701378346#1"/>
    <trip id="bus172" type="bus_bus" depart="166.99" departLane="best" from="32946692#0" to="1140665192"/>
    <trip id="bus173" type="bus_bus" depart="167.96" departLane="best" from="1180378196" to="547696282#1"/>
    <trip id="bus174" type="bus_bus" depart="168.93" departLane="best" from="704887557#1" to="380341204"/>
    <trip id="bus175" type="bus_bus" depart="169.90" departLane="best" departSpeed="max" from="-25784325#2" to="132684527#1"/>
    <trip id="bus176" type="bus_bus" depart="170.87" departLane="best" departSpeed="max" from="135053351#0" to="170832365#1"/>
    <trip id="bus177" type="bus_bus" depart="171.84" departLane="best" from="462035259#0" to="-562968525#1"/>
    <trip id="bus178" type="bus_bus" depart="172.81" departLane="best" from="1098428006#3" to="699957936#1"/>
    <trip id="bus179" type="bus_bus" depart="173.78" departLane="best" from="701621703#1" to="-19683534#5"/>
    <trip id="bus180" type="bus_bus" depart="174.75" departLane="best" from="22797833#0" to="39077073#1"/>
    <trip id="bus181" type="bus_bus" depart="175.73" departLane="best" from="229922382#3" to="824674208#2"/>
    <trip id="bus182" type="bus_bus" depart="176.70" departLane="best" departSpeed="max" from="23457174" to="707358773#1"/>
    <trip id="bus183" type="bus_bus" depart="177.67" departLane="best" from="547662355#2" to="700090227"/>
    <trip id="bus184" type="bus_bus" depart="178.64" departLane="best" from="706750725#0" to="703399123"/>
    <trip id="bus185" type="bus_bus" depart="179.61" departLane="best" departSpeed="max" from="-22604033#0" to="-109033611#0"/>
    <trip id="bus186" type="bus_bus" depart="180.58" departLane="best" from="706750722#0" to="81799763"/>
    <trip id="bus187" type="bus_bus" depart="181.55" departLane="best" departSpeed="max" from="23457174" to="701516271#0"/>
    <trip id="bus188" type="bus_bus" depart="182.52" departLane="best" from="4940449#0" to="5018776#0"/>
    <trip id="bus189" type="bus_bus" depart="183.49" departLane="best" departSpeed="max" from="109033611#0" to="-86720809#6"/>
    <trip id="bus190" type="bus_bus" depart="184.46" departLane="best" departSpeed="max" from="24531288#0" to="-14712267"/>
    <trip id="bus191" type="bus_bus" depart="185.43" departLane="best" departSpeed="max" from="22797820#0" to="-704338387"/>
    <trip id="bus192" type="bus_bus" depart="186.40" departLane="best" from="31661773#2" to="-54145954#1"/>
    <trip id="bus193" type="bus_bus" depart="187.38" departLane="best" from="573621956#2" to="-14712267"/>
    <trip id="bus195" type="bus_bus" depart="189.32" departLane="best" from="-17150684#2" to="-562968525#2"/>
    <trip id="bus197" type="bus_bus" depart="191.26" departLane="best" from="1076360324#1" to="17151944#0"/>
    <trip id="bus198" type="bus_bus" depart="192.23" departLane="best" from="704356343#0" to="705361733#1"/>
    <trip id="bus200" type="bus_bus" depart="194.17" departLane="best" from="9868257#2" to="368213674#1"/>
    <trip id="bus201" type="bus_bus" depart="195.14" departLane="best" from="699916380#1" to="703998732#1"/>
    <trip id="bus202" type="bus_bus" depart="196.11" departLane="best" from="699957936#1" to="701644611"/>
    <trip id="bus203" type="bus_bus" depart="197.08" departLane="best" from="86720809#2" to="-758406142"/>
    <trip id="bus204" type="bus_bus" depart="198.05" departLane="best" from="-14712201" to="699525090#3"/>
    <trip id="bus205" type="bus_bus" depart="199.03" departLane="best" from="56239618" to="-86720809#3"/>
    <trip id="bus206" type="bus_bus" depart="200.00" departLane="best" from="701378346#2" to="703401992#1"/>
    <trip id="bus207" type="bus_bus" depart="200.97" departLane="best" from="706803377" to="52640675"/>
    <trip id="bus210" type="bus_bus" depart="203.88" departLane="best" from="86720817#2" to="22697402#5"/>
    <trip id="bus212" type="bus_bus" depart="205.82" departLane="best" from="700877938" to="54145954#1"/>
    <trip id="bus213" type="bus_bus" depart="206.79" departLane="best" from="-4418472" to="1067286269"/>
    <trip id="bus214" type="bus_bus" depart="207.76" departLane="best" from="706750720" to="5018756#0"/>
    <trip id="bus215" type="bus_bus" depart="208.73" departLane="best" from="-54145954#5" to="92356999"/>
    <trip id="bus217" type="bus_bus" depart="210.68" departLane="best" departSpeed="max" from="24531287#0" to="22598001#1"/>
    <trip id="bus218" type="bus_bus" depart="211.65" departLane="best" from="381895122#2" to="-18018451#7"/>
    <trip id="bus219" type="bus_bus" depart="212.62" departLane="best" from="-4940451#0" to="86713541#1"/>
    <trip id="bus220" type="bus_bus" depart="213.59" departLane="best" from="701644607#1" to="-24531288#2"/>
    <trip id="bus221" type="bus_bus" depart="214.56" departLane="best" from="135053348" to="704887555#0"/>
    <trip id="bus222" type="bus_bus" depart="215.53" departLane="best" departSpeed="max" from="24531288#0" to="700696797"/>
    <trip id="bus223" type="bus_bus" depart="216.50" departLane="best" from="132684531" to="705409827"/>
    <trip id="bus225" type="bus_bus" depart="218.44" departLane="best" from="711293094" to="109033611#5"/>
    <trip id="bus226" type="bus_bus" depart="219.41" departLane="best" departSpeed="max" from="28573506" to="52640676"/>
    <trip id="bus227" type="bus_bus" depart="220.38" departLane="best" departSpeed="max" from="-22604033#0" to="-14712267"/>
    <trip id="bus228" type="bus_bus" depart="221.36" departLane="best" from="706750720" to="-706445007#1"/>
    <trip id="bus229" type="bus_bus" depart="222.33" departLane="best" from="1076360324#1" to="704356345#0"/>
    <trip id="bus230" type="bus_bus" depart="223.30" departLane="best" departSpeed="max" from="-109033611#5" to="761311713"/>
    <trip id="bus231" type="bus_bus" depart="224.27" departLane="best" departSpeed="max" from="-27661428#2" to="700616170"/>
    <trip id="bus232" type="bus_bus" depart="225.24" departLane="best" from="700877938" to="56706910#0"/>
    <trip id="bus233" type="bus_bus" depart="226.21" departLane="best" from="374114342#1" to="704341115#1"/>
    <trip id="bus234" type="bus_bus" depart="227.18" departLane="best" departSpeed="max" from="-33513919#1" to="97789312"/>
    <trip id="bus235" type="bus_bus" depart="228.15" departLane="best" from="700877940#0" to="144850878"/>
    <trip id="bus236" type="bus_bus" depart="229.12" departLane="best" departSpeed="max" from="547662355#0" to="32090457"/>
    <trip id="bus237" type="bus_bus" depart="230.09" departLane="best" departSpeed="max" from="4263606#0" to="229922382#2"/>
    <trip id="bus238" type="bus_bus" depart="231.06" departLane="best" departSpeed="max" from="704338387" to="179384091#1"/>
    <trip id="bus239" type="bus_bus" depart="232.03" departLane="best" from="701597908" to="1203401388"/>
    <trip id="bus240" type="bus_bus" depart="233.01" departLane="best" from="1213006518" to="-4940449#1"/>
    <trip id="bus241" type="bus_bus" depart="233.98" departLane="best" from="824674208#1" to="-4940449#0"/>
    <trip id="bus242" type="bus_bus" depart="234.95" departLane="best" from="4418431#1" to="702461325#1"/>
    <trip id="bus243" type="bus_bus" depart="235.92" departLane="best" from="368213674#1" to="700695449#0"/>
    <trip id="bus244" type="bus_bus" depart="236.89" departLane="best" from="144850880#0" to="-24531288#0"/>
    <trip id="bus245" type="bus_bus" depart="237.86" departLane="best" from="824674208#3" to="102653004"/>
    <trip id="bus246" type="bus_bus" depart="238.83" departLane="best" from="4418431#0" to="126978642#1"/>
    <trip id="bus248" type="bus_bus" depart="240.77" departLane="best" from="701378346#1" to="-54145954#0"/>
    <trip id="bus249" type="bus_bus" depart="241.74" departLane="best" from="707121979" to="33513919#1"/>
    <trip id="bus250" type="bus_bus" depart="242.71" departLane="best" from="707358764" to="4484118#2"/>
    <trip id="bus252" type="bus_bus" depart="244.66" departLane="best" from="711293094" to="-18018451#5"/>
    <trip id="bus253" type="bus_bus" depart="245.63" departLane="best" from="86714582#1" to="32867973"/>
    <trip id="bus255" type="bus_bus" depart="247.57" departLane="best" from="24531288#3" to="54145954#4"/>
    <trip id="bus256" type="bus_bus" depart="248.54" departLane="best" from="-22797818#2" to="-697670529"/>
    <trip id="bus257" type="bus_bus" depart="249.51" departLane="best" from="53054664" to="144850878"/>
    <trip id="bus258" type="bus_bus" depart="250.48" departLane="best" departSpeed="max" from="9868257#0" to="4418472"/>
    <trip id="bus259" type="bus_bus" depart="251.45" departLane="best" from="704887555#0" to="52640675"/>
    <trip id="bus260" type="bus_bus" depart="252.42" departLane="best" from="4083253#1" to="25784325#2"/>
    <trip id="bus261" type="bus_bus" depart="253.39" departLane="best" from="24531288#3" to="706054788#0"/>
    <trip id="bus262" type="bus_bus" depart="254.36" departLane="best" from="573621956#1" to="52640675"/>
    <trip id="bus263" type="bus_bus" depart="255.34" departLane="best" from="703998740#1" to="761311713"/>
    <trip id="bus264" type="bus_bus" depart="256.31" departLane="best" from="700357459#2" to="842905691#1"/>
    <trip id="bus266" type="bus_bus" depart="258.25" departLane="best" from="109033611#1" to="25784325#2"/>
    <trip id="bus267" type="bus_bus" depart="259.22" departLane="best" departSpeed="max" from="562968525#0" to="132684528"/>
    <trip id="bus268" type="bus_bus" depart="260.19" departLane="best" from="1098428006#4" to="700547993#1"/>
    <trip id="bus269" type="bus_bus" depart="261.16" departLane="best" from="701597908" to="25794650"/>
    <trip id="bus270" type="bus_bus" depart="262.13" departLane="best" departSpeed="max" from="700711763" to="705409827"/>
    <trip id="bus271" type="bus_bus" depart="263.10" departLane="best" departSpeed="max" from="705249101#0" to="54145953"/>
    <trip id="bus272" type="bus_bus" depart="264.07" departLane="best" from="700357460#0" to="757342459"/>
    <trip id="bus273" type="bus_bus" depart="265.04" departLane="best" departSpeed="max" from="24531287#0" to="39077073#3"/>
    <trip id="bus274" type="bus_bus" depart="266.01" departLane="best" from="98112666" to="708337630"/>
    <trip id="bus276" type="bus_bus" depart="267.96" departLane="best" from="-705369238" to="144850878"/>
    <trip id="bus277" type="bus_bus" depart="268.93" departLane="best" from="704341115#1" to="4484118#1"/>
    <trip id="bus278" type="bus_bus" depart="269.90" departLane="best" departSpeed="max" from="700711763" to="700357458"/>
    <trip id="bus281" type="bus_bus" depart="272.81" departLane="best" departSpeed="max" from="18018451#0" to="1098428006#5"/>
    <trip id="bus282" type="bus_bus" depart="273.78" departLane="best" departSpeed="max" from="-33513919#1" to="86714582#0"/>
    <trip id="bus283" type="bus_bus" depart="274.75" departLane="best" from="706464108#1" to="462035252#1"/>
    <trip id="bus285" type="bus_bus" depart="276.69" departLane="best" from="700695449#0" to="1180378196"/>
    <trip id="bus286" type="bus_bus" depart="277.67" departLane="best" from="-19683137#1" to="702461322#1"/>