<?xml version="1.0" encoding="UTF-8"?>
<!-- <configuration>
    <net-file value="C:\Users\HP_Demo\Sumo\2024-04-02-10-25-41\osm.net.xml.gz"/>
    <output-trip-file value="C:\Users\HP_Demo\Sumo\2024-04-02-10-25-41\osm.motorcycle.trips.xml"/>
    <route-file value="C:\Users\HP_Demo\Sumo\2024-04-02-10-25-41\osm.motorcycle.rou.xml"/>
    <prefix value="motorcycle"/>
    <trip-attributes value="departLane=&quot;best&quot;"/>
    <fringe-start-attributes value="departSpeed=&quot;max&quot;"/>
    <vehicle-class value="motorcycle"/>
    <fringe-factor value="10"/>
    <vclass value="motorcycle"/>
    <via-edge-types value="highway.motorway,highway.motorway_link,highway.trunk_link,highway.primary_link,highway.secondary_link,highway.tertiary_link"/>
    <max-distance value="1200.0"/>
    <remove-loops value="True"/>
    <validate value="True"/>
    <insertion-density value="100.0"/>
</configuration> -->
<routes xmlns:xsi="http://www.w3.org/2001/XMLSchema-instance" xsi:noNamespaceSchemaLocation="http://sumo.dlr.de/xsd/routes_file.xsd">
    
    <!--<route id="route0" edges="303810124 middle end rend"/>-->

    <vType id="motortaxi" vClass="motorcycle" guiShape="motorcycle" color="red" laneChangeModel="SL2015" 
    minGap="1.5" lcSublane="1.5" lcAssertive=".1" latAlignment="nice" lcStrategic="0" 
    lcKeepRight=".5">
        <!--<param key="has.taxi.device" value="true"/>-->
    </vType>
    <!-- lcSpeedGain uses the probabilities of 1-Left and 1-Right
    Make routes for motortaxi roaming and motortaxi pickup-->

    <trip id="motortaxi_test" type="motortaxi" depart="0.00" departLane="best" from="705369253#0" to="-18018451#1"/>
    
</routes>