<?xml version="1.0" encoding="UTF-8"?>

<!-- generated on 2024-04-02 11:59:00.013633 by osmWebWizard.py v1_19_0+0000-baa66a0f364
<configuration>
    <net-file value="C:\Users\HP_Demo\Sumo\2024-04-02-11-58-34\osm.net.xml.gz"/>
    <output-trip-file value="C:\Users\HP_Demo\Sumo\2024-04-02-11-58-34\osm.passenger.trips.xml"/>
    <route-file value="C:\Users\HP_Demo\Sumo\2024-04-02-11-58-34\osm.passenger.rou.xml"/>
    <prefix value="veh"/>
    <trip-attributes value="departLane=&quot;best&quot;"/>
    <fringe-start-attributes value="departSpeed=&quot;max&quot;"/>
    <vehicle-class value="passenger"/>
    <lanes value="True"/>
    <fringe-factor value="5"/>
    <allow-fringe.min-length value="1000.0"/>
    <via-edge-types value="highway.motorway,highway.motorway_link,highway.trunk_link,highway.primary_link,highway.secondary_link,highway.tertiary_link"/>
    <min-distance value="300.0"/>
    <min-distance.fringe value="10.0"/>
    <remove-loops value="True"/>
    <validate value="True"/>
    <insertion-density value="100.0"/>
</configuration>
-->

<!-- generated on 2024-04-02 11:58:58 by Eclipse SUMO duarouter Version 1.19.0
<configuration xmlns:xsi="http://www.w3.org/2001/XMLSchema-instance" xsi:noNamespaceSchemaLocation="http://sumo.dlr.de/xsd/duarouterConfiguration.xsd">

    <input>
        <net-file value="C:\Users\HP_Demo\Sumo\2024-04-02-11-58-34\osm.net.xml.gz"/>
        <route-files value="C:\Users\HP_Demo\Sumo\2024-04-02-11-58-34\osm.passenger.trips.xml"/>
    </input>

    <output>
        <output-file value="C:\Users\HP_Demo\Sumo\2024-04-02-11-58-34\osm.passenger.trips.xml.tmp"/>
        <alternatives-output value="NUL"/>
        <write-trips value="true"/>
    </output>

    <processing>
        <remove-loops value="true"/>
    </processing>

    <time>
        <begin value="0.0"/>
        <end value="3600.0"/>
    </time>

    <report>
        <no-warnings value="true"/>
        <ignore-errors value="true"/>
        <no-step-log value="true"/>
    </report>

</configuration>
-->

<routes xmlns:xsi="http://www.w3.org/2001/XMLSchema-instance" xsi:noNamespaceSchemaLocation="http://sumo.dlr.de/xsd/routes_file.xsd">
    <vType id="veh_passenger" vClass="passenger" lcSublane="2"/>
    <trip id="veh0" type="veh_passenger" depart="0.00" departLane="best" from="701612812#0" to="-17150684#1"/>
    <trip id="veh1" type="veh_passenger" depart="0.29" departLane="best" from="22598114#1" to="144850878"/>
    <trip id="veh2" type="veh_passenger" depart="0.58" departLane="best" from="705106530#0" to="701096366#0"/>
    <trip id="veh3" type="veh_passenger" depart="0.87" departLane="best" departSpeed="max" from="712417490" to="-700547993#3"/>
    <trip id="veh4" type="veh_passenger" depart="1.16" departLane="best" departSpeed="max" from="4263606#0" to="-18018451#5"/>
    <trip id="veh5" type="veh_passenger" depart="1.44" departLane="best" from="157161355#1" to="52640675"/>
    <trip id="veh6" type="veh_passenger" depart="1.73" departLane="best" from="-19683534#0" to="132684527#1"/>
    <trip id="veh7" type="veh_passenger" depart="2.02" departLane="best" from="702461325#0" to="547696282#1"/>
    <trip id="veh8" type="veh_passenger" depart="2.31" departLane="best" departSpeed="max" from="157812294" to="654885053#1"/>
    <trip id="veh9" type="veh_passenger" depart="2.60" departLane="best" departSpeed="max" from="706445007#0" to="-119300654#0"/>
    <trip id="veh10" type="veh_passenger" depart="2.89" departLane="best" from="27661373#0" to="1098428006#3"/>
    <trip id="veh11" type="veh_passenger" depart="3.18" departLane="best" departSpeed="max" from="86722056" to="24531289#1"/>
    <trip id="veh12" type="veh_passenger" depart="3.47" departLane="best" from="-705369236#0" to="705419063#1"/>
    <trip id="veh13" type="veh_passenger" depart="3.75" departLane="best" from="706750725#1" to="691378180#1"/>
    <trip id="veh14" type="veh_passenger" depart="4.04" departLane="best" from="-706445006#1" to="703998732#1"/>
    <trip id="veh16" type="veh_passenger" depart="4.62" departLane="best" from="374114345#0" to="-562968525#2"/>
    <trip id="veh17" type="veh_passenger" depart="4.91" departLane="best" from="706750712" to="700357456#1"/>
    <trip id="veh18" type="veh_passenger" depart="5.20" departLane="best" from="707358764" to="573621956#2"/>
    <trip id="veh19" type="veh_passenger" depart="5.49" departLane="best" from="704356345#0" to="-22797820#0"/>
    <trip id="veh20" type="veh_passenger" depart="5.78" departLane="best" from="17150684#1" to="22598114#0"/>
    <trip id="veh21" type="veh_passenger" depart="6.07" departLane="best" from="700098627" to="157161350#0"/>
    <trip id="veh22" type="veh_passenger" depart="6.35" departLane="best" from="705382988" to="220840491#0"/>
    <trip id="veh23" type="veh_passenger" depart="6.64" departLane="best" from="374108295#2" to="132684528"/>
    <trip id="veh24" type="veh_passenger" depart="6.93" departLane="best" from="22598080#2" to="757342459"/>
    <trip id="veh25" type="veh_passenger" depart="7.22" departLane="best" from="701644612" to="699525090#4"/>
    <trip id="veh26" type="veh_passenger" depart="7.51" departLane="best" from="1180378195" to="33513919#1"/>
    <trip id="veh27" type="veh_passenger" depart="7.80" departLane="best" departSpeed="max" from="9868257#0" to="700616170"/>
    <trip id="veh28" type="veh_passenger" depart="8.09" departLane="best" from="699945508#1" to="701381454#0"/>
    <trip id="veh29" type="veh_passenger" depart="8.38" departLane="best" from="706750722#1" to="704887559#0"/>
    <trip id="veh30" type="veh_passenger" depart="8.67" departLane="best" from="17151944#0" to="18056123#1"/>
    <trip id="veh31" type="veh_passenger" depart="8.95" departLane="best" departSpeed="max" from="23457174" to="220840483#1"/>
    <trip id="veh32" type="veh_passenger" depart="9.24" departLane="best" from="144850880#2" to="761304864"/>
    <trip id="veh35" type="veh_passenger" depart="10.11" departLane="best" from="22598001#1" to="179384091#1"/>
    <trip id="veh36" type="veh_passenger" depart="10.40" departLane="best" from="700695449#0" to="707358773#1"/>
    <trip id="veh37" type="veh_passenger" depart="10.69" departLane="best" departSpeed="max" from="38343252#0" to="-135053352#1"/>
    <trip id="veh38" type="veh_passenger" depart="10.98" departLane="best" from="705148056#0" to="-22797820#2"/>
    <trip id="veh39" type="veh_passenger" depart="11.26" departLane="best" from="758389472#0" to="700357460#0"/>
    <trip id="veh40" type="veh_passenger" depart="11.55" departLane="best" from="-706803372" to="380341200#1"/>
    <trip id="veh41" type="veh_passenger" depart="11.84" departLane="best" from="-54145954#3" to="220840484#1"/>
    <trip id="veh42" type="veh_passenger" depart="12.13" departLane="best" departSpeed="max" from="9868257#0" to="54145953"/>
    <trip id="veh43" type="veh_passenger" depart="12.42" departLane="best" from="704909391" to="706467247#1"/>
    <trip id="veh44" type="veh_passenger" depart="12.71" departLane="best" from="135053351#3" to="703430060#1"/>
    <trip id="veh45" type="veh_passenger" depart="13.00" departLane="best" from="703998735#0" to="547662355#1"/>
    <trip id="veh46" type="veh_passenger" depart="13.29" departLane="best" from="22598080#2" to="700616170"/>
    <trip id="veh47" type="veh_passenger" depart="13.58" departLane="best" from="758406141#0" to="381895123#0"/>
    <trip id="veh49" type="veh_passenger" depart="14.15" departLane="best" from="568859131#1" to="1180378196"/>
    <trip id="veh50" type="veh_passenger" depart="14.44" departLane="best" departSpeed="max" from="758406142" to="706750719#1"/>
    <trip id="veh51" type="veh_passenger" depart="14.73" departLane="best" from="22697402#5" to="700616170"/>
    <trip id="veh52" type="veh_passenger" depart="15.02" departLane="best" departSpeed="max" from="700711763" to="109033611#5"/>
    <trip id="veh53" type="veh_passenger" depart="15.31" departLane="best" from="705361732" to="547662355#2"/>
    <trip id="veh54" type="veh_passenger" depart="15.60" departLane="best" from="705369239" to="54145954#0"/>
    <trip id="veh55" type="veh_passenger" depart="15.89" departLane="best" from="-1075219689" to="22882844"/>
    <trip id="veh56" type="veh_passenger" depart="16.18" departLane="best" departSpeed="max" from="712417488#0" to="705382988"/>
    <trip id="veh57" type="veh_passenger" depart="16.46" departLane="best" from="22797833#0" to="25794650"/>
    <trip id="veh58" type="veh_passenger" depart="16.75" departLane="best" departSpeed="max" from="712417488#0" to="761311712"/>
    <trip id="veh59" type="veh_passenger" depart="17.04" departLane="best" departSpeed="max" from="-700548000" to="483619006"/>
    <trip id="veh60" type="veh_passenger" depart="17.33" departLane="best" departSpeed="max" from="-655805447" to="704471786#1"/>
    <trip id="veh61" type="veh_passenger" depart="17.62" departLane="best" from="705361740" to="-86720809#1"/>
    <trip id="veh62" type="veh_passenger" depart="17.91" departLane="best" from="547662355#1" to="56239618"/>
    <trip id="veh63" type="veh_passenger" depart="18.20" departLane="best" from="22598001#1" to="706750721#0"/>
    <trip id="veh64" type="veh_passenger" depart="18.49" departLane="best" departSpeed="max" from="4263606#0" to="132684530#2"/>
    <trip id="veh65" type="veh_passenger" depart="18.77" departLane="best" from="681801613#1" to="703998732#1"/>
    <trip id="veh66" type="veh_passenger" depart="19.06" departLane="best" from="135053351#1" to="22729442"/>
    <trip id="veh67" type="veh_passenger" depart="19.35" departLane="best" departSpeed="max" from="9868257#0" to="700695449#1"/>
    <trip id="veh68" type="veh_passenger" depart="19.64" departLane="best" from="4940451#0" to="53054666"/>
    <trip id="veh69" type="veh_passenger" depart="19.93" departLane="best" from="86720809#6" to="144850878"/>
    <trip id="veh70" type="veh_passenger" depart="20.22" departLane="best" from="25945011#1" to="654885053#0"/>
    <trip id="veh71" type="veh_passenger" depart="20.51" departLane="best" from="17151944#0" to="135053354#0"/>
    <trip id="veh72" type="veh_passenger" depart="20.80" departLane="best" departSpeed="max" from="-655805447" to="700547993#3"/>
    <trip id="veh73" type="veh_passenger" depart="21.09" departLane="best" from="17151944#0" to="708337630"/>
    <trip id="veh74" type="veh_passenger" depart="21.37" departLane="best" from="179384093" to="700877938"/>
    <trip id="veh75" type="veh_passenger" depart="21.66" departLane="best" departSpeed="max" from="14712267" to="97789312"/>
    <trip id="veh76" type="veh_passenger" depart="21.95" departLane="best" from="86713541#1" to="573621954"/>
    <trip id="veh77" type="veh_passenger" depart="22.24" departLane="best" departSpeed="max" from="547662355#0" to="705106530#0"/>
    <trip id="veh78" type="veh_passenger" depart="22.53" departLane="best" from="-706445006#1" to="132684525"/>
    <trip id="veh79" type="veh_passenger" depart="22.82" departLane="best" from="-705419063#1" to="380341208#1"/>
    <trip id="veh80" type="veh_passenger" depart="23.11" departLane="best" departSpeed="max" from="4263606#0" to="4263606#2"/>
    <trip id="veh81" type="veh_passenger" depart="23.40" departLane="best" from="97081380#2" to="706054788#1"/>
    <trip id="veh82" type="veh_passenger" depart="23.68" departLane="best" departSpeed="max" from="38343252#0" to="24531289#3"/>
    <trip id="veh83" type="veh_passenger" depart="23.97" departLane="best" from="707358764" to="179384092"/>
    <trip id="veh84" type="veh_passenger" depart="24.26" departLane="best" from="704902690#1" to="39077073#2"/>
    <trip id="veh85" type="veh_passenger" depart="24.55" departLane="best" departSpeed="max" from="4263606#0" to="220840491#1"/>
    <trip id="veh87" type="veh_passenger" depart="25.13" departLane="best" from="1213006518" to="706467248"/>
    <trip id="veh88" type="veh_passenger" depart="25.42" departLane="best" from="-699525090#1" to="-24531287#0"/>
    <trip id="veh90" type="veh_passenger" depart="26.00" departLane="best" from="706803373#1" to="1140665192"/>
    <trip id="veh91" type="veh_passenger" depart="26.28" departLane="best" departSpeed="max" from="38343252#0" to="-27661373#0"/>
    <trip id="veh92" type="veh_passenger" depart="26.57" departLane="best" from="22598001#1" to="705106530#0"/>
    <trip id="veh93" type="veh_passenger" depart="26.86" departLane="best" from="53054666-AddedOffRampEdge" to="700547998#1"/>
    <trip id="veh94" type="veh_passenger" depart="27.15" departLane="best" departSpeed="max" from="86722056" to="97789312"/>
    <trip id="veh95" type="veh_passenger" depart="27.44" departLane="best" from="699916380#1" to="703430056#1"/>
    <trip id="veh96" type="veh_passenger" depart="27.73" departLane="best" from="1101598986#0" to="22603996#2"/>
    <trip id="veh98" type="veh_passenger" depart="28.31" departLane="best" from="-681801614#0" to="704341115#1"/>
    <trip id="veh99" type="veh_passenger" depart="28.60" departLane="best" from="-4940451#1" to="573636377#0"/>
    <trip id="veh100" type="veh_passenger" depart="28.88" departLane="best" from="568859132#0" to="706464112"/>
    <trip id="veh101" type="veh_passenger" depart="29.17" departLane="best" from="1150583445#1" to="842905691#1"/>
    <trip id="veh102" type="veh_passenger" depart="29.46" departLane="best" from="-700098627" to="126978646"/>
    <trip id="veh103" type="veh_passenger" depart="29.75" departLane="best" from="700695452#0" to="701096365#0"/>
    <trip id="veh104" type="veh_passenger" depart="30.04" departLane="best" from="179384092" to="824674208#1"/>
    <trip id="veh105" type="veh_passenger" depart="30.33" departLane="best" departSpeed="max" from="712417490" to="179384091#1"/>
    <trip id="veh106" type="veh_passenger" depart="30.62" departLane="best" from="700695452#0" to="700357456#1"/>
    <trip id="veh107" type="veh_passenger" depart="30.91" departLane="best" from="573621956#3" to="755263197#0"/>
    <trip id="veh108" type="veh_passenger" depart="31.19" departLane="best" from="135053352#0" to="703427439#1"/>
    <trip id="veh110" type="veh_passenger" depart="31.77" departLane="best" from="703998730#1" to="-22648528#0"/>
    <trip id="veh111" type="veh_passenger" depart="32.06" departLane="best" departSpeed="max" from="23457174" to="704356343#0"/>
    <trip id="veh113" type="veh_passenger" depart="32.64" departLane="best" from="9868257#2" to="97789314#2"/>
    <trip id="veh115" type="veh_passenger" depart="33.22" departLane="best" departSpeed="max" from="712417488#0" to="706750723"/>
    <trip id="veh116" type="veh_passenger" depart="33.51" departLane="best" from="374108295#1" to="1098428007#0"/>
    <trip id="veh117" type="veh_passenger" depart="33.79" departLane="best" from="706750719#1" to="702461325#1"/>
    <trip id="veh118" type="veh_passenger" depart="34.08" departLane="best" departSpeed="max" from="700711763" to="92357007"/>
    <trip id="veh119" type="veh_passenger" depart="34.37" departLane="best" from="703399123" to="-119300654#1"/>
    <trip id="veh120" type="veh_passenger" depart="34.66" departLane="best" from="706464112" to="22604025#1"/>
    <trip id="veh121" type="veh_passenger" depart="34.95" departLane="best" from="703430056#1" to="-758389473#0"/>
    <trip id="veh122" type="veh_passenger" depart="35.24" departLane="best" from="1076616353" to="-758406142"/>
    <trip id="veh123" type="veh_passenger" depart="35.53" departLane="best" from="711293093" to="56706910#0"/>
    <trip id="veh124" type="veh_passenger" depart="35.82" departLane="best" from="22598092#1" to="691378180#1"/>
    <trip id="veh125" type="veh_passenger" depart="36.11" departLane="best" from="704565015#1" to="132684527#4"/>
    <trip id="veh126" type="veh_passenger" depart="36.39" departLane="best" from="701381454#1" to="19683534#4"/>
    <trip id="veh127" type="veh_passenger" depart="36.68" departLane="best" from="706750725#0" to="705369236#0"/>
    <trip id="veh128" type="veh_passenger" depart="36.97" departLane="best" departSpeed="max" from="4263606#0" to="220840489"/>
    <trip id="veh129" type="veh_passenger" depart="37.26" departLane="best" departSpeed="max" from="-109033611#5" to="704887557#1"/>
    <trip id="veh130" type="veh_passenger" depart="37.55" departLane="best" from="701597908" to="19683469#1"/>
    <trip id="veh131" type="veh_passenger" depart="37.84" departLane="best" from="705241293" to="-562968525#1"/>
    <trip id="veh132" type="veh_passenger" depart="38.13" departLane="best" from="4418431#1" to="-135053351#0"/>
    <trip id="veh133" type="veh_passenger" depart="38.42" departLane="best" from="755240057" to="547696282#1"/>
    <trip id="veh134" type="veh_passenger" depart="38.70" departLane="best" from="706750719#1" to="573621956#6"/>
    <trip id="veh135" type="veh_passenger" depart="38.99" departLane="best" from="1098428006#2" to="-86720809#1"/>
    <trip id="veh136" type="veh_passenger" depart="39.28" departLane="best" from="22797833#2" to="707417827"/>
    <trip id="veh137" type="veh_passenger" depart="39.57" departLane="best" from="705461599" to="706467247#1"/>
    <trip id="veh139" type="veh_passenger" depart="40.15" departLane="best" from="-19683137#0" to="705382988"/>
    <trip id="veh140" type="veh_passenger" depart="40.44" departLane="best" from="39077073#2" to="700357458"/>
    <trip id="veh141" type="veh_passenger" depart="40.73" departLane="best" from="1098428007#3" to="749318776#0"/>
    <trip id="veh143" type="veh_passenger" depart="41.30" departLane="best" from="664749269" to="706750725#1"/>
    <trip id="veh144" type="veh_passenger" depart="41.59" departLane="best" from="-19683137#0" to="703998735#0"/>
    <trip id="veh145" type="veh_passenger" depart="41.88" departLane="best" departSpeed="max" from="24531290#0" to="749318776#0-AddedOnRampEdge"/>
    <trip id="veh146" type="veh_passenger" depart="42.17" departLane="best" from="368213668#1" to="706750712"/>
    <trip id="veh147" type="veh_passenger" depart="42.46" departLane="best" from="705369251#1" to="-707358773#0"/>
    <trip id="veh148" type="veh_passenger" depart="42.75" departLane="best" from="711293093" to="706467247#0"/>
    <trip id="veh149" type="veh_passenger" depart="43.04" departLane="best" from="-170832360#1" to="705369236#1"/>
    <trip id="veh150" type="veh_passenger" depart="43.33" departLane="best" from="54145954#1" to="22697402#2"/>
    <trip id="veh151" type="veh_passenger" depart="43.61" departLane="best" from="705419063#1" to="144850880#0"/>
    <trip id="veh152" type="veh_passenger" depart="43.90" departLane="best" from="-18056123#2" to="132684525"/>
    <trip id="veh153" type="veh_passenger" depart="44.19" departLane="best" from="24531289#2" to="706750712"/>
    <trip id="veh154" type="veh_passenger" depart="44.48" departLane="best" from="86722072#3" to="22597996#1"/>
    <trip id="veh155" type="veh_passenger" depart="44.77" departLane="best" from="701621703#0" to="374114343#1"/>
    <trip id="veh156" type="veh_passenger" depart="45.06" departLane="best" from="135054234#0" to="547662355#1"/>
    <trip id="veh157" type="veh_passenger" depart="45.35" departLane="best" departSpeed="max" from="86720809#0" to="-758406142"/>
    <trip id="veh158" type="veh_passenger" depart="45.64" departLane="best" from="704909391" to="1180378196"/>
    <trip id="veh159" type="veh_passenger" depart="45.93" departLane="best" departSpeed="max" from="86722072#0" to="19827401#1"/>
    <trip id="veh160" type="veh_passenger" depart="46.21" departLane="best" from="-755263197#0" to="381895123#0"/>
    <trip id="veh161" type="veh_passenger" depart="46.50" departLane="best" from="704887559#0" to="22797818#2"/>
    <trip id="veh162" type="veh_passenger" depart="46.79" departLane="best" from="700711762" to="52640676"/>
    <trip id="veh163" type="veh_passenger" depart="47.08" departLane="best" from="380341203#0" to="573621956#1"/>
    <trip id="veh164" type="veh_passenger" depart="47.37" departLane="best" from="681801613#1" to="703430056#1"/>
    <trip id="veh165" type="veh_passenger" depart="47.66" departLane="best" from="368213674#1" to="-54145954#3"/>
    <trip id="veh166" type="veh_passenger" depart="47.95" departLane="best" from="-704567987" to="23593401#0"/>
    <trip id="veh167" type="veh_passenger" depart="48.24" departLane="best" from="229922382#3" to="706448182"/>
    <trip id="veh168" type="veh_passenger" depart="48.53" departLane="best" from="22882804#1" to="374114343#1"/>
    <trip id="veh169" type="veh_passenger" depart="48.81" departLane="best" from="-700098627" to="374114349"/>
    <trip id="veh170" type="veh_passenger" depart="49.10" departLane="best" departSpeed="max" from="86720809#0" to="701096366#0"/>
    <trip id="veh171" type="veh_passenger" depart="49.39" departLane="best" from="750019357#0" to="700090227"/>
    <trip id="veh172" type="veh_passenger" depart="49.68" departLane="best" from="22788847#0" to="547696282#2"/>
    <trip id="veh173" type="veh_passenger" depart="49.97" departLane="best" from="-1075219689" to="22598088#5"/>
    <trip id="veh174" type="veh_passenger" depart="50.26" departLane="best" from="462035252#1" to="573621956#3"/>
    <trip id="veh175" type="veh_passenger" depart="50.55" departLane="best" from="703401991#1" to="4089442#0"/>
    <trip id="veh176" type="veh_passenger" depart="50.84" departLane="best" from="1213006518" to="126978642#1"/>
    <trip id="veh177" type="veh_passenger" depart="51.12" departLane="best" departSpeed="max" from="547662355#0" to="707417828#1"/>
    <trip id="veh178" type="veh_passenger" depart="51.41" departLane="best" from="-705419063#1" to="1140665192"/>
    <trip id="veh179" type="veh_passenger" depart="51.70" departLane="best" departSpeed="max" from="-700548000" to="53054664"/>
    <trip id="veh180" type="veh_passenger" depart="51.99" departLane="best" from="701381454#0" to="24531289#0"/>
    <trip id="veh181" type="veh_passenger" depart="52.28" departLane="best" from="706467245#0" to="704341118#1"/>
    <trip id="veh182" type="veh_passenger" depart="52.57" departLane="best" from="703998730#2" to="144850878"/>
    <trip id="veh183" type="veh_passenger" depart="52.86" departLane="best" departSpeed="max" from="135053351#0" to="17150115#1"/>
    <trip id="veh184" type="veh_passenger" depart="53.15" departLane="best" from="-18056123#1" to="4484118#2"/>
    <trip id="veh185" type="veh_passenger" depart="53.44" departLane="best" from="-706803379" to="-562968525#0"/>
    <trip id="veh186" type="veh_passenger" depart="53.72" departLane="best" from="132684531" to="701644607#1"/>
    <trip id="veh187" type="veh_passenger" depart="54.01" departLane="best" from="56706910#0" to="17152412#1"/>
    <trip id="veh188" type="veh_passenger" depart="54.30" departLane="best" from="703401992#1" to="-1101598986#0"/>
    <trip id="veh189" type="veh_passenger" depart="54.59" departLane="best" from="707358773#0" to="380341203#1"/>
    <trip id="veh191" type="veh_passenger" depart="55.17" departLane="best" from="573621956#1" to="-24531287#0"/>
    <trip id="veh192" type="veh_passenger" depart="55.46" departLane="best" from="-19683137#0" to="706448182"/>
    <trip id="veh193" type="veh_passenger" depart="55.75" departLane="best" from="707121979" to="705354691#2"/>
    <trip id="veh194" type="veh_passenger" depart="56.04" departLane="best" from="703998729#0" to="92356999"/>
    <trip id="veh195" type="veh_passenger" depart="56.32" departLane="best" from="700696797" to="761311713"/>
    <trip id="veh196" type="veh_passenger" depart="56.61" departLane="best" departSpeed="max" from="712417490" to="-4083253#0"/>
    <trip id="veh197" type="veh_passenger" depart="56.90" departLane="best" from="704565016#0" to="52640675"/>
    <trip id="veh198" type="veh_passenger" depart="57.19" departLane="best" from="706750714" to="547696282#2"/>
    <trip id="veh199" type="veh_passenger" depart="57.48" departLane="best" from="747975721#0" to="703998740#2"/>
    <trip id="veh201" type="veh_passenger" depart="58.06" departLane="best" from="184842504" to="700548002"/>
    <trip id="veh202" type="veh_passenger" depart="58.35" departLane="best" from="705361740" to="54030331"/>
    <trip id="veh203" type="veh_passenger" depart="58.63" departLane="best" from="701378346#0" to="220840489"/>
    <trip id="veh204" type="veh_passenger" depart="58.92" departLane="best" from="-699525090#4" to="22598088#3"/>
    <trip id="veh205" type="veh_passenger" depart="59.21" departLane="best" from="22598088#5" to="22882843"/>
    <trip id="veh206" type="veh_passenger" depart="59.50" departLane="best" from="681801613#2" to="1067286268"/>
    <trip id="veh207" type="veh_passenger" depart="59.79" departLane="best" from="17152532#0" to="701621703#0"/>
    <trip id="veh208" type="veh_passenger" depart="60.08" departLane="best" from="704356345#1" to="-4940449#1"/>
    <trip id="veh209" type="veh_passenger" depart="60.37" departLane="best" from="39077073#2" to="547662355#4"/>
    <trip id="veh210" type="veh_passenger" depart="60.66" departLane="best" from="4086409#2" to="132684527#6"/>
    <trip id="veh211" type="veh_passenger" depart="60.95" departLane="best" from="4089442#1" to="708337630"/>
    <trip id="veh212" type="veh_passenger" depart="61.23" departLane="best" from="700695449#0" to="701621703#1"/>
    <trip id="veh213" type="veh_passenger" depart="61.52" departLane="best" from="707121979" to="704565015#0"/>
    <trip id="veh214" type="veh_passenger" depart="61.81" departLane="best" from="374114345#1" to="-1101598986#0"/>
    <trip id="veh215" type="veh_passenger" depart="62.10" departLane="best" from="32945701#1" to="704356345#0"/>
    <trip id="veh216" type="veh_passenger" depart="62.39" departLane="best" departSpeed="max" from="157812294" to="-135053352#1"/>
    <trip id="veh218" type="veh_passenger" depart="62.97" departLane="best" from="25945011#0" to="701096366#1"/>
    <trip id="veh219" type="veh_passenger" depart="63.26" departLane="best" from="39077073#1" to="1140665192"/>
    <trip id="veh220" type="veh_passenger" depart="63.54" departLane="best" departSpeed="max" from="547662355#0" to="-86720809#1"/>
    <trip id="veh221" type="veh_passenger" depart="63.83" departLane="best" from="701096365#0" to="-18018451#0"/>
    <trip id="veh222" type="veh_passenger" depart="64.12" departLane="best" from="380341208#2" to="568859131#0"/>
    <trip id="veh223" type="veh_passenger" depart="64.41" departLane="best" from="19683534#1" to="700684166"/>
    <trip id="veh224" type="veh_passenger" depart="64.70" departLane="best" departSpeed="max" from="108060096#0" to="4086409#2"/>
    <trip id="veh225" type="veh_passenger" depart="64.99" departLane="best" from="144850880#2" to="229922382#0"/>
    <trip id="veh226" type="veh_passenger" depart="65.28" departLane="best" from="705361732" to="33513919#0"/>
    <trip id="veh227" type="veh_passenger" depart="65.57" departLane="best" departSpeed="max" from="705249101#0" to="705382988"/>
    <trip id="veh228" type="veh_passenger" depart="65.86" departLane="best" from="-18018451#4" to="547662355#2"/>
    <trip id="veh229" type="veh_passenger" depart="66.14" departLane="best" from="9868257#2" to="25945011#2"/>
    <trip id="veh230" type="veh_passenger" depart="66.43" departLane="best" from="702461325#0" to="704902690#1"/>
    <trip id="veh231" type="veh_passenger" depart="66.72" departLane="best" from="703399122#1" to="704356345#0"/>
    <trip id="veh232" type="veh_passenger" depart="67.01" departLane="best" departSpeed="max" from="86720817#0" to="132684527#1"/>
    <trip id="veh233" type="veh_passenger" depart="67.30" departLane="best" from="-18018451#6" to="109033611#5"/>
    <trip id="veh234" type="veh_passenger" depart="67.59" departLane="best" from="1067286269" to="700877938"/>
    <trip id="veh235" type="veh_passenger" depart="67.88" departLane="best" from="700357458" to="-135053352#0"/>
    <trip id="veh236" type="veh_passenger" depart="68.17" departLane="best" from="705241296#3" to="-758406142"/>
    <trip id="veh237" type="veh_passenger" depart="68.46" departLane="best" from="706467245#0" to="86714582#3"/>
    <trip id="veh238" type="veh_passenger" depart="68.74" departLane="best" from="711293094" to="-18018451#0"/>
    <trip id="veh239" type="veh_passenger" depart="69.03" departLane="best" from="229922382#2" to="701096366#0"/>
    <trip id="veh241" type="veh_passenger" depart="69.61" departLane="best" from="704565014#0" to="-571060430#0"/>
    <trip id="veh242" type="veh_passenger" depart="69.90" departLane="best" from="703998741#0" to="700357460#0"/>
    <trip id="veh243" type="veh_passenger" depart="70.19" departLane="best" from="705382987#1" to="704887558#1"/>
    <trip id="veh245" type="veh_passenger" depart="70.77" departLane="best" from="86720809#6" to="92357001"/>
    <trip id="veh246" type="veh_passenger" depart="71.05" departLane="best" from="705369246" to="25945011#0"/>
    <trip id="veh247" type="veh_passenger" depart="71.34" departLane="best" from="-4418472" to="32867973"/>
    <trip id="veh248" type="veh_passenger" depart="71.63" departLane="best" from="568859132#2" to="24531289#3"/>
    <trip id="veh249" type="veh_passenger" depart="71.92" departLane="best" from="707358773#1" to="842905691#1"/>
    <trip id="veh250" type="veh_passenger" depart="72.21" departLane="best" from="701516271#0" to="705369251#1"/>
    <trip id="veh251" type="veh_passenger" depart="72.50" departLane="best" from="704356346#0" to="381895123#1"/>
    <trip id="veh252" type="veh_passenger" depart="72.79" departLane="best" from="704902690#1" to="-86720809#3"/>
    <trip id="veh253" type="veh_passenger" depart="73.08" departLane="best" from="22598088#3" to="705361742#0"/>
    <trip id="veh254" type="veh_passenger" depart="73.37" departLane="best" from="681801613#1" to="462035252#1"/>
    <trip id="veh256" type="veh_passenger" depart="73.94" departLane="best" from="22598088#2" to="-706464109"/>
    <trip id="veh257" type="veh_passenger" depart="74.23" departLane="best" from="706750714" to="700547993#2"/>