<?xml version="1.0" encoding="UTF-8"?>

<routes xmlns:xsi="http://www.w3.org/2001/XMLSchema-instance" xsi:noNamespaceSchemaLocation="http://sumo.dlr.de/xsd/routes_file.xsd">
    

    <vType id="motortaxi" vClass="taxi" personCapacity="1" guiShape="motorcycle" color="red" laneChangeModel="SL2015" 
    minGap="1" length="2.0" width=".7" height="1.1" 
    lcSublane="1.5" lcAssertive="1" latAlignment="nice" lcStrategic="0" 
    lcKeepRight=".5" lcSpeedGain="0" lcPushy="0" lcSigma=".5" lcLookaheadLeft="1" >
        <param key="has.taxi.device" value="true"/>
        <param key="device.taxi.dropOffDuration" value="0"/>
        <param key="device.taxi.end" value="10000"/>
    </vType>
    <!-- lcSpeedGain uses the probabilities of 1-Left and 1-Right
    Make routes for motortaxi roaming and motortaxi pickup-->

    <!-- validation-->
    <!-- <vehicle id="motortaxivalidation" type="motortaxi" depart="30" color="1,0,0">
        <route edges="571044351#0 571044351#2 761304864 34155649#1 220840484#1 761304863#1 761304863#2 
        761304863#3 761304863#4 711293098 220840489#0 220840489#1 220840489#2 711144689#0 711230109
        671307953#0 671307953#1 702465338#1 114695854#1 
        31091043#1 31091043#2 31091043#4 38318883#0 38318883#1 38343252#1
        39077073#1 38062536#0 38062536#1 38062536#2"/>
    </vehicle> -->
    
    <vehicle id="motortaxi1" type="motortaxi" depart="0" color="1,0,0">
        <route edges="712668428"/>
    </vehicle>
    <vehicle id="motortaxi2" type="motortaxi" depart="0" color="1,0,0">
        <route edges="27831120"/>
    </vehicle>
    <vehicle id="motortaxi3" type="motortaxi" depart="0" color="1,0,0">
        <route edges="31091043#4"/>
    </vehicle>


    <vehicle id="motortaxi4" type="motortaxi" depart="0" color="1,0,0">
        <route edges="22697402#8"/>
    </vehicle>
    <vehicle id="motortaxi5" type="motortaxi" depart="0" color="1,0,0">
        <route edges="38062536#2"/>
    </vehicle>
    <vehicle id="motortaxi6" type="motortaxi" depart="0" color="1,0,0">
        <route edges="712417479"/>
    </vehicle>

    <!-- <vehicle id="motortaxi7" type="motortaxi" depart="0" color="1,0,0">
        <route edges="645172763"/>
    </vehicle>
    <vehicle id="motortaxi8" type="motortaxi" depart="0" color="1,0,0">
        <route edges="27661429#1"/>
    </vehicle>
    <vehicle id="motortaxi9" type="motortaxi" depart="0" color="1,0,0">
        <route edges="706191003#2"/>
    </vehicle> -->

</routes>