<?xml version="1.0" encoding="UTF-8"?>

<!-- generated on 2024-04-02 11:58:53.107946 by osmWebWizard.py v1_19_0+0000-baa66a0f364
<configuration>
    <net-file value="C:\Users\HP_Demo\Sumo\2024-04-02-11-58-34\osm.net.xml.gz"/>
    <output-trip-file value="C:\Users\HP_Demo\Sumo\2024-04-02-11-58-34\osm.motorcycle.trips.xml"/>
    <route-file value="C:\Users\HP_Demo\Sumo\2024-04-02-11-58-34\osm.motorcycle.rou.xml"/>
    <prefix value="motorcycle"/>
    <trip-attributes value="departLane=&quot;best&quot;"/>
    <fringe-start-attributes value="departSpeed=&quot;max&quot;"/>
    <vehicle-class value="motorcycle"/>
    <fringe-factor value="2"/>
    <vclass value="motorcycle"/>
    <via-edge-types value="highway.motorway,highway.motorway_link,highway.trunk_link,highway.primary_link,highway.secondary_link,highway.tertiary_link"/>
    <max-distance value="1200.0"/>
    <remove-loops value="True"/>
    <validate value="True"/>
    <insertion-density value="80.0"/>
</configuration>
-->

<!-- generated on 2024-04-02 11:58:51 by Eclipse SUMO duarouter Version 1.19.0
<configuration xmlns:xsi="http://www.w3.org/2001/XMLSchema-instance" xsi:noNamespaceSchemaLocation="http://sumo.dlr.de/xsd/duarouterConfiguration.xsd">

    <input>
        <net-file value="C:\Users\HP_Demo\Sumo\2024-04-02-11-58-34\osm.net.xml.gz"/>
        <route-files value="C:\Users\HP_Demo\Sumo\2024-04-02-11-58-34\osm.motorcycle.trips.xml"/>
    </input>

    <output>
        <output-file value="C:\Users\HP_Demo\Sumo\2024-04-02-11-58-34\osm.motorcycle.trips.xml.tmp"/>
        <alternatives-output value="NUL"/>
        <write-trips value="true"/>
    </output>

    <processing>
        <remove-loops value="true"/>
    </processing>

    <time>
        <begin value="0.0"/>
        <end value="3600.0"/>
    </time>

    <report>
        <no-warnings value="true"/>
        <ignore-errors value="true"/>
        <no-step-log value="true"/>
    </report>

</configuration>
-->

<routes xmlns:xsi="http://www.w3.org/2001/XMLSchema-instance" xsi:noNamespaceSchemaLocation="http://sumo.dlr.de/xsd/routes_file.xsd">
    <vType id="motorcycle_motorcycle" vClass="motorcycle" laneChangeModel="SL2015" minGap="1.5" lcSublane="1.5"
    lcAssertive=".2" latAlignment="nice" lcStrategic="0" lcSpeedGain="0.8" lcKeepRight=".5"/>
    <trip id="motorcycle0" type="motorcycle_motorcycle" depart="0.00" departLane="best" from="135053352#1" to="-109033611#3"/>
    <trip id="motorcycle1" type="motorcycle_motorcycle" depart="0.36" departLane="best" from="703998734#2" to="700357459#2"/>
    <trip id="motorcycle2" type="motorcycle_motorcycle" depart="0.72" departLane="best" from="17150684#2" to="-86720809#1"/>
    <trip id="motorcycle3" type="motorcycle_motorcycle" depart="1.08" departLane="best" from="700098627" to="462035252#1"/>
    <trip id="motorcycle4" type="motorcycle_motorcycle" depart="1.44" departLane="best" from="1098428006#2" to="54145954#1"/>
    <trip id="motorcycle5" type="motorcycle_motorcycle" depart="1.81" departLane="best" from="705363306" to="-109033611#3"/>
    <trip id="motorcycle6" type="motorcycle_motorcycle" depart="2.17" departLane="best" from="705361743#1" to="705249100"/>
    <trip id="motorcycle7" type="motorcycle_motorcycle" depart="2.53" departLane="best" from="19683534#5" to="-705369236#0"/>
    <trip id="motorcycle8" type="motorcycle_motorcycle" depart="2.89" departLane="best" from="381895122#1" to="32867973"/>
    <trip id="motorcycle9" type="motorcycle_motorcycle" depart="3.25" departLane="best" from="706464109" to="547696282#2"/>
    <trip id="motorcycle10" type="motorcycle_motorcycle" depart="3.61" departLane="best" from="705363305" to="701644611"/>
    <trip id="motorcycle11" type="motorcycle_motorcycle" depart="3.97" departLane="best" from="22603996#3" to="483747733#0"/>
    <trip id="motorcycle12" type="motorcycle_motorcycle" depart="4.33" departLane="best" from="705419063#1" to="568859131#1"/>
    <trip id="motorcycle13" type="motorcycle_motorcycle" depart="4.69" departLane="best" from="701621703#0" to="18056123#1"/>
    <trip id="motorcycle14" type="motorcycle_motorcycle" depart="5.05" departLane="best" from="1098428007#2" to="144850878"/>
    <trip id="motorcycle15" type="motorcycle_motorcycle" depart="5.42" departLane="best" departSpeed="max" from="-25784325#2" to="1098428006#5"/>
    <trip id="motorcycle16" type="motorcycle_motorcycle" depart="5.78" departLane="best" from="-4940451#0" to="132684531"/>
    <trip id="motorcycle17" type="motorcycle_motorcycle" depart="6.14" departLane="best" from="814837390" to="22598088#1"/>
    <trip id="motorcycle18" type="motorcycle_motorcycle" depart="6.50" departLane="best" from="135053348" to="-758406141#1"/>
    <trip id="motorcycle19" type="motorcycle_motorcycle" depart="6.86" departLane="best" from="-707121985" to="701644611"/>
    <trip id="motorcycle20" type="motorcycle_motorcycle" depart="7.22" departLane="best" from="-706445006#1" to="22598132#2"/>
    <trip id="motorcycle21" type="motorcycle_motorcycle" depart="7.58" departLane="best" from="97081380#1" to="573636377#0"/>
    <trip id="motorcycle22" type="motorcycle_motorcycle" depart="7.94" departLane="best" from="53054666-AddedOffRampEdge" to="700547998#1"/>
    <trip id="motorcycle23" type="motorcycle_motorcycle" depart="8.30" departLane="best" from="706445015" to="704356345#0"/>
    <trip id="motorcycle24" type="motorcycle_motorcycle" depart="8.67" departLane="best" from="1098428007#2" to="17150684#1"/>
    <trip id="motorcycle25" type="motorcycle_motorcycle" depart="9.03" departLane="best" departSpeed="max" from="108060096#0" to="761311711"/>
    <trip id="motorcycle26" type="motorcycle_motorcycle" depart="9.39" departLane="best" from="707113081#1" to="17152532#1"/>
    <trip id="motorcycle27" type="motorcycle_motorcycle" depart="9.75" departLane="best" from="700357459#0" to="22729442"/>
    <trip id="motorcycle28" type="motorcycle_motorcycle" depart="10.11" departLane="best" from="54030371#1" to="132684525"/>
    <trip id="motorcycle29" type="motorcycle_motorcycle" depart="10.47" departLane="best" departSpeed="max" from="9868257#0" to="381895123#0"/>
    <trip id="motorcycle30" type="motorcycle_motorcycle" depart="10.83" departLane="best" from="-54145954#0" to="571044354#2"/>
    <trip id="motorcycle31" type="motorcycle_motorcycle" depart="11.19" departLane="best" from="98112666" to="4086409#1"/>
    <trip id="motorcycle32" type="motorcycle_motorcycle" depart="11.55" departLane="best" from="31661773#2" to="824674208#3"/>
    <trip id="motorcycle33" type="motorcycle_motorcycle" depart="11.91" departLane="best" from="707113081#1" to="132684525"/>
    <trip id="motorcycle34" type="motorcycle_motorcycle" depart="12.28" departLane="best" from="38319207" to="-711293093"/>
    <trip id="motorcycle35" type="motorcycle_motorcycle" depart="12.64" departLane="best" from="749318776#0" to="706467248"/>
    <trip id="motorcycle36" type="motorcycle_motorcycle" depart="13.00" departLane="best" from="17150115#1" to="573621956#6"/>
    <trip id="motorcycle37" type="motorcycle_motorcycle" depart="13.36" departLane="best" from="571060430#1" to="-705148056#1"/>
    <trip id="motorcycle38" type="motorcycle_motorcycle" depart="13.72" departLane="best" from="704556778#0" to="4418472"/>
    <trip id="motorcycle39" type="motorcycle_motorcycle" depart="14.08" departLane="best" from="704909391" to="4086409#2"/>
    <trip id="motorcycle40" type="motorcycle_motorcycle" depart="14.44" departLane="best" from="-1075219689" to="-18018451#4"/>
    <trip id="motorcycle41" type="motorcycle_motorcycle" depart="14.80" departLane="best" from="-14712201" to="755263197#1"/>
    <trip id="motorcycle42" type="motorcycle_motorcycle" depart="15.16" departLane="best" from="17152532#0" to="19827404#0"/>
    <trip id="motorcycle43" type="motorcycle_motorcycle" depart="15.53" departLane="best" from="707113087#0" to="761311715#1"/>
    <trip id="motorcycle45" type="motorcycle_motorcycle" depart="16.25" departLane="best" from="24531287#2" to="703998734#3"/>
    <trip id="motorcycle46" type="motorcycle_motorcycle" depart="16.61" departLane="best" from="704565015#1" to="-571060430#0"/>
    <trip id="motorcycle47" type="motorcycle_motorcycle" depart="16.97" departLane="best" from="24531287#2" to="1067286269"/>
    <trip id="motorcycle48" type="motorcycle_motorcycle" depart="17.33" departLane="best" from="4940451#1" to="701644612"/>
    <trip id="motorcycle49" type="motorcycle_motorcycle" depart="17.69" departLane="best" from="1067286269" to="17151944#0"/>
    <trip id="motorcycle50" type="motorcycle_motorcycle" depart="18.05" departLane="best" from="97789314#2" to="681801613#2"/>
    <trip id="motorcycle51" type="motorcycle_motorcycle" depart="18.41" departLane="best" departSpeed="max" from="24531290#0" to="39077073#1"/>
    <trip id="motorcycle52" type="motorcycle_motorcycle" depart="18.77" departLane="best" from="571060430#0" to="109033611#5"/>
    <trip id="motorcycle53" type="motorcycle_motorcycle" depart="19.14" departLane="best" from="-1101598986#0" to="1087117740"/>
    <trip id="motorcycle54" type="motorcycle_motorcycle" depart="19.50" departLane="best" from="24531287#3" to="573621955#0"/>
    <trip id="motorcycle55" type="motorcycle_motorcycle" depart="19.86" departLane="best" from="1098428007#3" to="707417827"/>
    <trip id="motorcycle56" type="motorcycle_motorcycle" depart="20.22" departLane="best" from="1180378194" to="700090227"/>
    <trip id="motorcycle57" type="motorcycle_motorcycle" depart="20.58" departLane="best" departSpeed="max" from="109033611#0" to="-697670529"/>
    <trip id="motorcycle58" type="motorcycle_motorcycle" depart="20.94" departLane="best" from="703998729#0" to="700357458"/>
    <trip id="motorcycle59" type="motorcycle_motorcycle" depart="21.30" departLane="best" from="92357007" to="33513919#0"/>
    <trip id="motorcycle60" type="motorcycle_motorcycle" depart="21.66" departLane="best" from="706750719#1" to="1180378194"/>
    <trip id="motorcycle61" type="motorcycle_motorcycle" depart="22.02" departLane="best" from="-842905691#0" to="27661428#1"/>
    <trip id="motorcycle62" type="motorcycle_motorcycle" depart="22.39" departLane="best" from="126978646" to="749318776#0"/>
    <trip id="motorcycle64" type="motorcycle_motorcycle" depart="23.11" departLane="best" departSpeed="max" from="86722072#0" to="750019357#0"/>
    <trip id="motorcycle65" type="motorcycle_motorcycle" depart="23.47" departLane="best" from="706464112" to="706445006#0"/>
    <trip id="motorcycle66" type="motorcycle_motorcycle" depart="23.83" departLane="best" from="380341200#1" to="1067286270#2"/>
    <trip id="motorcycle67" type="motorcycle_motorcycle" depart="24.19" departLane="best" from="22604002#1" to="92357005#1"/>
    <trip id="motorcycle68" type="motorcycle_motorcycle" depart="24.55" departLane="best" from="132684531" to="704565014#0"/>
    <trip id="motorcycle69" type="motorcycle_motorcycle" depart="24.91" departLane="best" from="32867973" to="-24531287#2"/>
    <trip id="motorcycle70" type="motorcycle_motorcycle" depart="25.27" departLane="best" from="56239618" to="701378346#2"/>
    <trip id="motorcycle71" type="motorcycle_motorcycle" depart="25.63" departLane="best" from="-705369238" to="157161350#0"/>
    <trip id="motorcycle72" type="motorcycle_motorcycle" depart="26.00" departLane="best" departSpeed="max" from="86722072#0" to="53054666"/>
    <trip id="motorcycle73" type="motorcycle_motorcycle" depart="26.36" departLane="best" from="4940470" to="703430056#1"/>
    <trip id="motorcycle74" type="motorcycle_motorcycle" depart="26.72" departLane="best" from="-22797818#2" to="54030371#0"/>
    <trip id="motorcycle75" type="motorcycle_motorcycle" depart="27.08" departLane="best" departSpeed="max" from="38343252#0" to="-706054788#0"/>
    <trip id="motorcycle76" type="motorcycle_motorcycle" depart="27.44" departLane="best" from="5018776#0" to="86714582#1"/>
    <trip id="motorcycle77" type="motorcycle_motorcycle" depart="27.80" departLane="best" departSpeed="max" from="-25784325#2" to="-758406141#1"/>
    <trip id="motorcycle78" type="motorcycle_motorcycle" depart="28.16" departLane="best" from="568859086#0" to="700357459#1"/>
    <trip id="motorcycle80" type="motorcycle_motorcycle" depart="28.88" departLane="best" from="568859086#0" to="568859132#0"/>
    <trip id="motorcycle81" type="motorcycle_motorcycle" depart="29.25" departLane="best" departSpeed="max" from="24531287#0" to="54030371#0"/>
    <trip id="motorcycle82" type="motorcycle_motorcycle" depart="29.61" departLane="best" from="1180378194" to="22729442"/>
    <trip id="motorcycle83" type="motorcycle_motorcycle" depart="29.97" departLane="best" from="700695449#0" to="157161356#1"/>
    <trip id="motorcycle84" type="motorcycle_motorcycle" depart="30.33" departLane="best" from="132684531" to="-758389472#0"/>
    <trip id="motorcycle85" type="motorcycle_motorcycle" depart="30.69" departLane="best" from="22598124#2" to="-705382984#0"/>
    <trip id="motorcycle86" type="motorcycle_motorcycle" depart="31.05" departLane="best" from="573621955#0" to="951875251"/>
    <trip id="motorcycle87" type="motorcycle_motorcycle" depart="31.41" departLane="best" from="700357458" to="-109033611#4"/>
    <trip id="motorcycle88" type="motorcycle_motorcycle" depart="31.77" departLane="best" from="705369246" to="157161356#1"/>
    <trip id="motorcycle89" type="motorcycle_motorcycle" depart="32.13" departLane="best" from="-699525090#6" to="-54145954#1"/>
    <trip id="motorcycle90" type="motorcycle_motorcycle" depart="32.49" departLane="best" from="-4940466" to="483747733#1"/>
    <trip id="motorcycle91" type="motorcycle_motorcycle" depart="32.86" departLane="best" from="135053351#3" to="547696282#3"/>
    <trip id="motorcycle92" type="motorcycle_motorcycle" depart="33.22" departLane="best" from="703401992#1" to="-86720809#6"/>
    <trip id="motorcycle93" type="motorcycle_motorcycle" depart="33.58" departLane="best" from="691378178" to="132684525"/>
    <trip id="motorcycle94" type="motorcycle_motorcycle" depart="33.94" departLane="best" from="380341203#1" to="707417827"/>
    <trip id="motorcycle95" type="motorcycle_motorcycle" depart="34.30" departLane="best" from="706464108#0" to="25784325#0"/>
    <trip id="motorcycle96" type="motorcycle_motorcycle" depart="34.66" departLane="best" from="24531287#2" to="132684530#2"/>
    <trip id="motorcycle97" type="motorcycle_motorcycle" depart="35.02" departLane="best" from="691378181#0" to="132684525"/>
    <trip id="motorcycle98" type="motorcycle_motorcycle" depart="35.38" departLane="best" from="706004480" to="54030331"/>
    <trip id="motorcycle99" type="motorcycle_motorcycle" depart="35.74" departLane="best" from="-704567987" to="-562968525#4"/>
    <trip id="motorcycle100" type="motorcycle_motorcycle" depart="36.11" departLane="best" from="17152532#1" to="707358760"/>
    <trip id="motorcycle101" type="motorcycle_motorcycle" depart="36.47" departLane="best" from="705354689#1" to="706464108#1"/>
    <trip id="motorcycle102" type="motorcycle_motorcycle" depart="36.83" departLane="best" from="711293098" to="1067286269"/>
    <trip id="motorcycle103" type="motorcycle_motorcycle" depart="37.19" departLane="best" from="126978646" to="-4083253#0"/>
    <trip id="motorcycle104" type="motorcycle_motorcycle" depart="37.55" departLane="best" from="705106530#1" to="706750725#0"/>
    <trip id="motorcycle105" type="motorcycle_motorcycle" depart="37.91" departLane="best" from="-705369238" to="755263197#1"/>
    <trip id="motorcycle106" type="motorcycle_motorcycle" depart="38.27" departLane="best" from="705369236#1" to="706750722#1"/>
    <trip id="motorcycle107" type="motorcycle_motorcycle" depart="38.63" departLane="best" from="17150115#1" to="703399122#0"/>
    <trip id="motorcycle108" type="motorcycle_motorcycle" depart="38.99" departLane="best" from="705361735#1" to="706467245#0"/>
    <trip id="motorcycle109" type="motorcycle_motorcycle" depart="39.35" departLane="best" from="-119300654#0" to="132684527#1"/>
    <trip id="motorcycle110" type="motorcycle_motorcycle" depart="39.72" departLane="best" from="705241296#1" to="-4940449#1"/>
    <trip id="motorcycle111" type="motorcycle_motorcycle" depart="40.08" departLane="best" from="706750725#1" to="706448182"/>
    <trip id="motorcycle112" type="motorcycle_motorcycle" depart="40.44" departLane="best" from="1098428006#3" to="705361732"/>
    <trip id="motorcycle113" type="motorcycle_motorcycle" depart="40.80" departLane="best" from="32946572#1" to="-17150115#1"/>
    <trip id="motorcycle114" type="motorcycle_motorcycle" depart="41.16" departLane="best" from="705354689#1" to="1098428006#0"/>
    <trip id="motorcycle115" type="motorcycle_motorcycle" depart="41.52" departLane="best" from="17150115#0" to="824674208#3"/>
    <trip id="motorcycle116" type="motorcycle_motorcycle" depart="41.88" departLane="best" from="-18056123#3" to="706467245#0"/>
    <trip id="motorcycle118" type="motorcycle_motorcycle" depart="42.60" departLane="best" from="81799763" to="-54145954#1"/>
    <trip id="motorcycle119" type="motorcycle_motorcycle" depart="42.97" departLane="best" departSpeed="max" from="86722072#0" to="-711293093"/>
    <trip id="motorcycle120" type="motorcycle_motorcycle" depart="43.33" departLane="best" departSpeed="max" from="86720817#0" to="132684527#0"/>
    <trip id="motorcycle121" type="motorcycle_motorcycle" depart="43.69" departLane="best" from="703436757#1" to="17152532#0"/>
    <trip id="motorcycle122" type="motorcycle_motorcycle" depart="44.05" departLane="best" from="571044354#2" to="381895123#1"/>
    <trip id="motorcycle123" type="motorcycle_motorcycle" depart="44.41" departLane="best" from="132684527#1" to="700711762"/>
    <trip id="motorcycle124" type="motorcycle_motorcycle" depart="44.77" departLane="best" from="4940451#0" to="701378346#2"/>
    <trip id="motorcycle125" type="motorcycle_motorcycle" depart="45.13" departLane="best" from="703998737" to="700325987"/>
    <trip id="motorcycle126" type="motorcycle_motorcycle" depart="45.49" departLane="best" from="22598088#5" to="-22797820#0"/>
    <trip id="motorcycle127" type="motorcycle_motorcycle" depart="45.85" departLane="best" from="-700547993#3" to="18056123#1"/>
    <trip id="motorcycle128" type="motorcycle_motorcycle" depart="46.21" departLane="best" from="703422294" to="157161356#1"/>
    <trip id="motorcycle129" type="motorcycle_motorcycle" depart="46.58" departLane="best" from="824674208#0" to="700357459#2"/>
    <trip id="motorcycle130" type="motorcycle_motorcycle" depart="46.94" departLane="best" from="17150559#2" to="700702822"/>
    <trip id="motorcycle131" type="motorcycle_motorcycle" depart="47.30" departLane="best" from="-1075219689" to="135054234#0"/>
    <trip id="motorcycle132" type="motorcycle_motorcycle" depart="47.66" departLane="best" from="24531288#1" to="53054666-AddedOffRampEdge"/>
    <trip id="motorcycle133" type="motorcycle_motorcycle" depart="48.02" departLane="best" from="700357459#0" to="32946689#1"/>
    <trip id="motorcycle134" type="motorcycle_motorcycle" depart="48.38" departLane="best" from="-25784325#1" to="1067286270#2"/>
    <trip id="motorcycle135" type="motorcycle_motorcycle" depart="48.74" departLane="best" from="368213674#1" to="707358764"/>
    <trip id="motorcycle136" type="motorcycle_motorcycle" depart="49.10" departLane="best" from="705354689#1" to="-706464109"/>
    <trip id="motorcycle137" type="motorcycle_motorcycle" depart="49.46" departLane="best" departSpeed="max" from="-27661428#2" to="38319207"/>
    <trip id="motorcycle139" type="motorcycle_motorcycle" depart="50.19" departLane="best" from="705369250" to="703436757#1"/>
    <trip id="motorcycle140" type="motorcycle_motorcycle" depart="50.55" departLane="best" from="700695449#1" to="-109033611#4"/>
    <trip id="motorcycle141" type="motorcycle_motorcycle" depart="50.91" departLane="best" departSpeed="max" from="23457174" to="-571060430#1"/>
    <trip id="motorcycle142" type="motorcycle_motorcycle" depart="51.27" departLane="best" from="700357459#1" to="-109033611#1"/>
    <trip id="motorcycle143" type="motorcycle_motorcycle" depart="51.63" departLane="best" from="704341115#1" to="703998741#1"/>
    <trip id="motorcycle145" type="motorcycle_motorcycle" depart="52.35" departLane="best" from="126978646" to="705461602"/>
    <trip id="motorcycle146" type="motorcycle_motorcycle" depart="52.71" departLane="best" from="32945701#0" to="-705148056#0"/>
    <trip id="motorcycle147" type="motorcycle_motorcycle" depart="53.07" departLane="best" from="700684166" to="951875251"/>
    <trip id="motorcycle148" type="motorcycle_motorcycle" depart="53.44" departLane="best" from="568859086#1" to="824674208#0"/>
    <trip id="motorcycle149" type="motorcycle_motorcycle" depart="53.80" departLane="best" from="703405127" to="380341208#2"/>
    <trip id="motorcycle150" type="motorcycle_motorcycle" depart="54.16" departLane="best" from="711293094" to="703422294"/>
    <trip id="motorcycle151" type="motorcycle_motorcycle" depart="54.52" departLane="best" from="374108128#0" to="126978646"/>
    <trip id="motorcycle152" type="motorcycle_motorcycle" depart="54.88" departLane="best" from="132684531" to="573621956#4"/>
    <trip id="motorcycle153" type="motorcycle_motorcycle" depart="55.24" departLane="best" from="671307951" to="132684528"/>
    <trip id="motorcycle154" type="motorcycle_motorcycle" depart="55.60" departLane="best" from="-25784325#0" to="135053354#0"/>
    <trip id="motorcycle155" type="motorcycle_motorcycle" depart="55.96" departLane="best" from="135053351#2" to="179384093"/>
    <trip id="motorcycle156" type="motorcycle_motorcycle" depart="56.32" departLane="best" from="-4940451#2" to="699525090#4"/>
    <trip id="motorcycle157" type="motorcycle_motorcycle" depart="56.68" departLane="best" from="1101598986#1" to="700684167#1"/>
    <trip id="motorcycle158" type="motorcycle_motorcycle" depart="57.05" departLane="best" departSpeed="max" from="562968525#0" to="700695449#0"/>
    <trip id="motorcycle159" type="motorcycle_motorcycle" depart="57.41" departLane="best" from="706467248" to="703998740#0"/>
    <trip id="motorcycle161" type="motorcycle_motorcycle" depart="58.13" departLane="best" departSpeed="max" from="24531287#0" to="703430056#1"/>
    <trip id="motorcycle162" type="motorcycle_motorcycle" depart="58.49" departLane="best" from="5018756#1" to="547696282#2"/>
    <trip id="motorcycle163" type="motorcycle_motorcycle" depart="58.85" departLane="best" from="1098428006#2" to="1076616353"/>
    <trip id="motorcycle164" type="motorcycle_motorcycle" depart="59.21" departLane="best" from="19683534#1" to="700357463#1"/>
    <trip id="motorcycle165" type="motorcycle_motorcycle" depart="59.57" departLane="best" from="22797833#0" to="706054788#1"/>
    <trip id="motorcycle166" type="motorcycle_motorcycle" depart="59.93" departLane="best" from="654885053#0" to="-170832360#0"/>
    <trip id="motorcycle167" type="motorcycle_motorcycle" depart="60.30" departLane="best" from="17150684#2" to="654885053#1"/>
    <trip id="motorcycle168" type="motorcycle_motorcycle" depart="60.66" departLane="best" from="758406141#2" to="32945701#1"/>
    <trip id="motorcycle169" type="motorcycle_motorcycle" depart="61.02" departLane="best" from="19827404#1" to="22598132#2"/>
    <trip id="motorcycle170" type="motorcycle_motorcycle" depart="61.38" departLane="best" departSpeed="max" from="108060096#0" to="-18018451#6"/>
    <trip id="motorcycle171" type="motorcycle_motorcycle" depart="61.74" departLane="best" from="704471786#1" to="22598132#2"/>
    <trip id="motorcycle173" type="motorcycle_motorcycle" depart="62.46" departLane="best" from="-14712201" to="4418472"/>
    <trip id="motorcycle174" type="motorcycle_motorcycle" depart="62.82" departLane="best" from="9868257#2" to="220840483#1"/>
    <trip id="motorcycle175" type="motorcycle_motorcycle" depart="63.18" departLane="best" from="-700098627" to="704471786#1"/>
    <trip id="motorcycle176" type="motorcycle_motorcycle" depart="63.54" departLane="best" from="700325987" to="703998730#0"/>
    <trip id="motorcycle177" type="motorcycle_motorcycle" depart="63.91" departLane="best" from="86714582#0" to="-86720809#1"/>
    <trip id="motorcycle178" type="motorcycle_motorcycle" depart="64.27" departLane="best" from="-170832360#0" to="705148056#0"/>
    <trip id="motorcycle180" type="motorcycle_motorcycle" depart="64.99" departLane="best" from="54145954#1" to="1076411947#1"/>
    <trip id="motorcycle181" type="motorcycle_motorcycle" depart="65.35" departLane="best" from="701381454#1" to="703998740#1"/>
    <trip id="motorcycle182" type="motorcycle_motorcycle" depart="65.71" departLane="best" from="-706803373#0" to="-562968525#1"/>
    <trip id="motorcycle183" type="motorcycle_motorcycle" depart="66.07" departLane="best" from="703998741#1" to="-54145954#0"/>
    <trip id="motorcycle184" type="motorcycle_motorcycle" depart="66.43" departLane="best" from="179384092" to="700357459#2"/>
    <trip id="motorcycle185" type="motorcycle_motorcycle" depart="66.79" departLane="best" from="86720809#4" to="22788847#0"/>
    <trip id="motorcycle186" type="motorcycle_motorcycle" depart="67.16" departLane="best" from="703399123" to="22797833#2"/>
    <trip id="motorcycle187" type="motorcycle_motorcycle" depart="67.52" departLane="best" from="701096364#0" to="571044354#2"/>
    <trip id="motorcycle188" type="motorcycle_motorcycle" depart="67.88" departLane="best" from="571060430#0" to="92357001"/>
    <trip id="motorcycle189" type="motorcycle_motorcycle" depart="68.24" departLane="best" from="705148056#1" to="-19827404#0"/>
    <trip id="motorcycle190" type="motorcycle_motorcycle" depart="68.60" departLane="best" departSpeed="max" from="24531288#0" to="22598092#1"/>
    <trip id="motorcycle191" type="motorcycle_motorcycle" depart="68.96" departLane="best" from="39077073#2" to="19683534#3"/>
    <trip id="motorcycle192" type="motorcycle_motorcycle" depart="69.32" departLane="best" from="706464112" to="705361743#1"/>
    <trip id="motorcycle193" type="motorcycle_motorcycle" depart="69.68" departLane="best" from="701644607#1" to="24531289#3"/>
    <trip id="motorcycle194" type="motorcycle_motorcycle" depart="70.04" departLane="best" from="703998732#1" to="-86720809#4"/>
    <trip id="motorcycle195" type="motorcycle_motorcycle" depart="70.40" departLane="best" from="135053351#1" to="705241296#2"/>
    <trip id="motorcycle196" type="motorcycle_motorcycle" depart="70.77" departLane="best" from="4940451#0" to="374108295#2"/>
    <trip id="motorcycle197" type="motorcycle_motorcycle" depart="71.13" departLane="best" from="24531289#2" to="701644612"/>
    <trip id="motorcycle198" type="motorcycle_motorcycle" depart="71.49" departLane="best" departSpeed="max" from="135053351#0" to="706004480"/>
    <trip id="motorcycle199" type="motorcycle_motorcycle" depart="71.85" departLane="best" from="705461599" to="-24531288#0"/>
    <trip id="motorcycle200" type="motorcycle_motorcycle" depart="72.21" departLane="best" from="707121974#1" to="1150583445#1"/>
    <trip id="motorcycle201" type="motorcycle_motorcycle" depart="72.57" departLane="best" from="-33513919#0" to="-562968525#4"/>
    <trip id="motorcycle202" type="motorcycle_motorcycle" depart="72.93" departLane="best" from="22604002#1" to="-170832360#1"/>
    <trip id="motorcycle203" type="motorcycle_motorcycle" depart="73.29" departLane="best" from="706467245#1" to="-758389472#0"/>
    <trip id="motorcycle204" type="motorcycle_motorcycle" depart="73.65" departLane="best" from="1087117740" to="704909391"/>
    <trip id="motorcycle205" type="motorcycle_motorcycle" depart="74.02" departLane="best" from="19683534#5" to="706750722#0"/>
    <trip id="motorcycle206" type="motorcycle_motorcycle" depart="74.38" departLane="best" from="701516271#0" to="132684530#2"/>
    <trip id="motorcycle207" type="motorcycle_motorcycle" depart="74.74" departLane="best" departSpeed="max" from="-27661428#2" to="701381454#0"/>
    <trip id="motorcycle208" type="motorcycle_motorcycle" depart="75.10" departLane="best" from="701096364#0" to="664749269"/>
    <trip id="motorcycle209" type="motorcycle_motorcycle" depart="75.46" departLane="best" from="701096365#0" to="17150559#1"/>
    <trip id="motorcycle210" type="motorcycle_motorcycle" depart="75.82" departLane="best" from="547696282#3" to="34883547#0"/>
    <trip id="motorcycle211" type="motorcycle_motorcycle" depart="76.18" departLane="best" from="703998741#0" to="18056123#2"/>
    <trip id="motorcycle212" type="motorcycle_motorcycle" depart="76.54" departLane="best" from="701597908" to="132684527#4"/>
    <trip id="motorcycle213" type="motorcycle_motorcycle" depart="76.90" departLane="best" from="126978647#1" to="-54145954#5"/>
    <trip id="motorcycle214" type="motorcycle_motorcycle" depart="77.26" departLane="best" from="86720809#2" to="-54145954#4"/>
    <trip id="motorcycle215" type="motorcycle_motorcycle" depart="77.63" departLane="best" from="4940449#0" to="703998735#0"/>
    <trip id="motorcycle216" type="motorcycle_motorcycle" depart="77.99" departLane="best" from="700695451#2" to="701612812#0"/>
    <trip id="motorcycle217" type="motorcycle_motorcycle" depart="78.35" departLane="best" from="86720809#6" to="1098428006#0"/>
    <trip id="motorcycle218" type="motorcycle_motorcycle" depart="78.71" departLane="best" from="758389473#0" to="-135053351#0"/>
    <trip id="motorcycle220" type="motorcycle_motorcycle" depart="79.43" departLane="best" from="701378346#2" to="-562968525#3"/>
    <trip id="motorcycle221" type="motorcycle_motorcycle" depart="79.79" departLane="best" from="706750722#1" to="374114345#0"/>
    <trip id="motorcycle222" type="motorcycle_motorcycle" depart="80.15" departLane="best" from="706803373#1" to="52640676"/>
    <trip id="motorcycle223" type="motorcycle_motorcycle" depart="80.51" departLane="best" from="368213668#0" to="25784325#2"/>