<?xml version="1.0" encoding="UTF-8"?>
<!-- <configuration>
    <net-file value="C:\Users\HP_Demo\Sumo\2024-04-02-10-25-41\osm.net.xml.gz"/>
    <output-trip-file value="C:\Users\HP_Demo\Sumo\2024-04-02-10-25-41\osm.motorcycle.trips.xml"/>
    <route-file value="C:\Users\HP_Demo\Sumo\2024-04-02-10-25-41\osm.motorcycle.rou.xml"/>
    <prefix value="motorcycle"/>
    <trip-attributes value="departLane=&quot;best&quot;"/>
    <fringe-start-attributes value="departSpeed=&quot;max&quot;"/>
    <vehicle-class value="motorcycle"/>
    <fringe-factor value="10"/>
    <vclass value="motorcycle"/>
    <via-edge-types value="highway.motorway,highway.motorway_link,highway.trunk_link,highway.primary_link,highway.secondary_link,highway.tertiary_link"/>
    <max-distance value="1200.0"/>
    <remove-loops value="True"/>
    <validate value="True"/>
    <insertion-density value="100.0"/>
</configuration> -->
<routes xmlns:xsi="http://www.w3.org/2001/XMLSchema-instance" xsi:noNamespaceSchemaLocation="http://sumo.dlr.de/xsd/routes_file.xsd">
    
    <!--<route id="route0" edges="303810124 middle end rend"/>-->

    <vType id="motortaxi" vClass="taxi" personCapacity="1" guiShape="motorcycle" color="red" laneChangeModel="SL2015" 
    minGap="1.5" lcSublane="1.5" lcAssertive=".7" latAlignment="nice" lcStrategic="0" 
    lcKeepRight=".5" lcSpeedGain="0">
        <param key="has.taxi.device" value="true"/>
        <param key="device.taxi.dropOffDuration" value="5"/>
    </vType>
    <!-- lcSpeedGain uses the probabilities of 1-Left and 1-Right
    Make routes for motortaxi roaming and motortaxi pickup-->

    <!-- <route id="route0" color="1,1,0" from="7661474" to="86720809#3"/> -->
    <!-- <vehicle id="motortaxi_latest" type="motortaxi" depart="0" color="1,0,0"/> -->
    <vehicle id="motortaxi1" type="motortaxi" depart="0" color="1,0,0">
        <route edges="712668428"/>
    </vehicle>
    <!-- <trip id="motortaxi2" type="motortaxi" depart="0" color="1,0,0" from="132684527#6"/> -->
    <!-- <trip id="motortaxi_test" type="motortaxi" depart="0" color="1,0,0" from="712668428" to="86720809#1"/>
    <trip id="motortaxi_test1" type="motortaxi" depart="0" color="1,0,0" from="738574701" to="22598001#1"/>
    <trip id="motortaxi_test2" type="motortaxi" depart="0" color="1,0,0" from="27661429#1" to="22598114#3"/>
    <trip id="motortaxi_test3" type="motortaxi" depart="0" color="1,0,0" from="-22604033#2" to="27661429#1"/>
    <trip id="motortaxi_test4" type="motortaxi" depart="0" color="1,0,0" from="705241295" to="27661474"/>
    <trip id="motortaxi_test5" type="motortaxi" depart="0" color="1,0,0" from="712411951" to="38319207"/>
    <trip id="motortaxi_test6" type="motortaxi" depart="0" color="1,0,0" from="-22604033#1" to="712411951"/>
    <trip id="motortaxi_test7" type="motortaxi" depart="0" color="1,0,0" from="31661773#2" to="4086409#2"/>
    <trip id="motortaxi_test8" type="motortaxi" depart="0" color="1,0,0" from="22729201#1" to="701612812#0"/> -->

    <person id="passenger1" depart="0.00" color="blue">
        <walk from="27662625#1" busStop="bs_0"/>
        <ride from="27662625#1" to="132684530#2" lines="taxi"/>
    </person>
    <person id="passenger2" depart="30.00" color="blue">
        <walk from="27662625#1" busStop="bs_0"/>
        <ride from="27662625#1" to="22598132#2" lines="taxi"/>
    </person>


    <!-- <trip id="motortaxi_test" type="motortaxi" depart="0.00" departLane="best" from="705369253#0" to="-18018451#1"/> -->
    
</routes>